526040
  -OEChem-10302200292D
 72 75  0     1  0  0  0  0  0999 V2000
   10.6323    2.7676    0.0000 Si  0  0  0  0  0  0  0  0  0  0  0  0
    3.0000   -2.7462    0.0000 Si  0  0  0  0  0  0  0  0  0  0  0  0
    9.6538    2.5614    0.0000 O   0  0  0  0  0  0  0  0  0  0  0  0
    3.0038   -1.7462    0.0000 O   0  0  0  0  0  0  0  0  0  0  0  0
    3.0200    0.3454    0.0000 O   0  0  0  0  0  0  0  0  0  0  0  0
    8.3969    1.3062    0.0000 C   0  0  3  0  0  0  0  0  0  0  0  0
    8.3969    0.3062    0.0000 C   0  0  3  0  0  0  0  0  0  0  0  0
    7.5309   -0.1938    0.0000 C   0  0  3  0  0  0  0  0  0  0  0  0
    9.3432    1.6109    0.0000 C   0  0  3  0  0  0  0  0  0  0  0  0
    6.6649    0.3062    0.0000 C   0  0  3  0  0  0  0  0  0  0  0  0
    7.5309    1.8062    0.0000 C   0  0  0  0  0  0  0  0  0  0  0  0
    9.3432    0.0014    0.0000 C   0  0  0  0  0  0  0  0  0  0  0  0
    9.9268    0.8062    0.0000 C   0  0  0  0  0  0  0  0  0  0  0  0
    6.6649    1.3062    0.0000 C   0  0  0  0  0  0  0  0  0  0  0  0
    7.5470   -1.2353    0.0000 C   0  0  0  0  0  0  0  0  0  0  0  0
    8.3969    2.3062    0.0000 C   0  0  0  0  0  0  0  0  0  0  0  0
    5.7549   -0.2007    0.0000 C   0  0  0  0  0  0  0  0  0  0  0  0
    6.6489   -1.7631    0.0000 C   0  0  0  0  0  0  0  0  0  0  0  0
    5.7468   -1.2423    0.0000 C   0  0  0  0  0  0  0  0  0  0  0  0
    4.8280    0.3634    0.0000 C   0  0  0  0  0  0  0  0  0  0  0  0
    4.8114   -1.7920    0.0000 C   0  0  0  0  0  0  0  0  0  0  0  0
    3.8802   -0.1645    0.0000 C   0  0  0  0  0  0  0  0  0  0  0  0
    3.8718   -1.2495    0.0000 C   0  0  0  0  0  0  0  0  0  0  0  0
   11.6108    2.9739    0.0000 C   0  0  0  0  0  0  0  0  0  0  0  0
   10.4261    3.7462    0.0000 C   0  0  0  0  0  0  0  0  0  0  0  0
   10.8385    1.7891    0.0000 C   0  0  0  0  0  0  0  0  0  0  0  0
    3.0315    1.3454    0.0000 C   0  0  0  0  0  0  0  0  0  0  0  0
    2.9961   -3.7462    0.0000 C   0  0  0  0  0  0  0  0  0  0  0  0
    2.0000   -2.7423    0.0000 C   0  0  0  0  0  0  0  0  0  0  0  0
    4.0000   -2.7500    0.0000 C   0  0  0  0  0  0  0  0  0  0  0  0
    8.4625   -0.3103    0.0000 H   0  0  0  0  0  0  0  0  0  0  0  0
    8.0702   -0.4997    0.0000 H   0  0  0  0  0  0  0  0  0  0  0  0
    8.9057    2.0503    0.0000 H   0  0  0  0  0  0  0  0  0  0  0  0
    7.2018    0.6162    0.0000 H   0  0  0  0  0  0  0  0  0  0  0  0
    7.9294    2.2811    0.0000 H   0  0  0  0  0  0  0  0  0  0  0  0
    7.1324    2.2811    0.0000 H   0  0  0  0  0  0  0  0  0  0  0  0
    9.0921   -0.5655    0.0000 H   0  0  0  0  0  0  0  0  0  0  0  0
    9.8805   -0.3078    0.0000 H   0  0  0  0  0  0  0  0  0  0  0  0
   10.3876    0.3914    0.0000 H   0  0  0  0  0  0  0  0  0  0  0  0
   10.3876    1.2209    0.0000 H   0  0  0  0  0  0  0  0  0  0  0  0
    6.4528    1.8888    0.0000 H   0  0  0  0  0  0  0  0  0  0  0  0
    6.0543    1.1985    0.0000 H   0  0  0  0  0  0  0  0  0  0  0  0
    7.7650   -1.8157    0.0000 H   0  0  0  0  0  0  0  0  0  0  0  0
    8.1561   -1.1198    0.0000 H   0  0  0  0  0  0  0  0  0  0  0  0
    9.0169    2.3062    0.0000 H   0  0  0  0  0  0  0  0  0  0  0  0
    8.3969    2.9262    0.0000 H   0  0  0  0  0  0  0  0  0  0  0  0
    7.7769    2.3062    0.0000 H   0  0  0  0  0  0  0  0  0  0  0  0
    6.2516   -2.2391    0.0000 H   0  0  0  0  0  0  0  0  0  0  0  0
    7.0499   -2.2360    0.0000 H   0  0  0  0  0  0  0  0  0  0  0  0
    4.8400    0.9833    0.0000 H   0  0  0  0  0  0  0  0  0  0  0  0
    4.8138   -2.4120    0.0000 H   0  0  0  0  0  0  0  0  0  0  0  0
   11.7387    2.3672    0.0000 H   0  0  0  0  0  0  0  0  0  0  0  0
   12.2175    3.1017    0.0000 H   0  0  0  0  0  0  0  0  0  0  0  0
   11.4830    3.5805    0.0000 H   0  0  0  0  0  0  0  0  0  0  0  0
   11.0328    3.8740    0.0000 H   0  0  0  0  0  0  0  0  0  0  0  0
   10.2982    4.3528    0.0000 H   0  0  0  0  0  0  0  0  0  0  0  0
    9.8194    3.6183    0.0000 H   0  0  0  0  0  0  0  0  0  0  0  0
   10.2319    1.6613    0.0000 H   0  0  0  0  0  0  0  0  0  0  0  0
   10.9664    1.1825    0.0000 H   0  0  0  0  0  0  0  0  0  0  0  0
   11.4452    1.9170    0.0000 H   0  0  0  0  0  0  0  0  0  0  0  0
    3.6515    1.3382    0.0000 H   0  0  0  0  0  0  0  0  0  0  0  0
    3.0387    1.9653    0.0000 H   0  0  0  0  0  0  0  0  0  0  0  0
    2.4116    1.3525    0.0000 H   0  0  0  0  0  0  0  0  0  0  0  0
    2.3761   -3.7438    0.0000 H   0  0  0  0  0  0  0  0  0  0  0  0
    2.9938   -4.3661    0.0000 H   0  0  0  0  0  0  0  0  0  0  0  0
    3.6161   -3.7485    0.0000 H   0  0  0  0  0  0  0  0  0  0  0  0
    2.0024   -2.1223    0.0000 H   0  0  0  0  0  0  0  0  0  0  0  0
    1.3800   -2.7399    0.0000 H   0  0  0  0  0  0  0  0  0  0  0  0
    1.9976   -3.3623    0.0000 H   0  0  0  0  0  0  0  0  0  0  0  0
    3.9976   -3.3700    0.0000 H   0  0  0  0  0  0  0  0  0  0  0  0
    4.6200   -2.7524    0.0000 H   0  0  0  0  0  0  0  0  0  0  0  0
    4.0024   -2.1300    0.0000 H   0  0  0  0  0  0  0  0  0  0  0  0
  1  3  1  0  0  0  0
  1 24  1  0  0  0  0
  1 25  1  0  0  0  0
  1 26  1  0  0  0  0
  2  4  1  0  0  0  0
  2 28  1  0  0  0  0
  2 29  1  0  0  0  0
  2 30  1  0  0  0  0
  3  9  1  0  0  0  0
  4 23  1  0  0  0  0
  5 22  1  0  0  0  0
  5 27  1  0  0  0  0
  6  7  1  0  0  0  0
  6  9  1  0  0  0  0
  6 11  1  0  0  0  0
  6 16  1  0  0  0  0
  7  8  1  0  0  0  0
  7 12  1  0  0  0  0
  7 31  1  0  0  0  0
  8 10  1  0  0  0  0
  8 15  1  0  0  0  0
  8 32  1  0  0  0  0
  9 13  1  0  0  0  0
  9 33  1  0  0  0  0
 10 14  1  0  0  0  0
 10 17  1  0  0  0  0
 10 34  1  0  0  0  0
 11 14  1  0  0  0  0
 11 35  1  0  0  0  0
 11 36  1  0  0  0  0
 12 13  1  0  0  0  0
 12 37  1  0  0  0  0
 12 38  1  0  0  0  0
 13 39  1  0  0  0  0
 13 40  1  0  0  0  0
 14 41  1  0  0  0  0
 14 42  1  0  0  0  0
 15 18  1  0  0  0  0
 15 43  1  0  0  0  0
 15 44  1  0  0  0  0
 16 45  1  0  0  0  0
 16 46  1  0  0  0  0
 16 47  1  0  0  0  0
 17 19  1  0  0  0  0
 17 20  2  0  0  0  0
 18 19  1  0  0  0  0
 18 48  1  0  0  0  0
 18 49  1  0  0  0  0
 19 21  2  0  0  0  0
 20 22  1  0  0  0  0
 20 50  1  0  0  0  0
 21 23  1  0  0  0  0
 21 51  1  0  0  0  0
 22 23  2  0  0  0  0
 24 52  1  0  0  0  0
 24 53  1  0  0  0  0
 24 54  1  0  0  0  0
 25 55  1  0  0  0  0
 25 56  1  0  0  0  0
 25 57  1  0  0  0  0
 26 58  1  0  0  0  0
 26 59  1  0  0  0  0
 26 60  1  0  0  0  0
 27 61  1  0  0  0  0
 27 62  1  0  0  0  0
 27 63  1  0  0  0  0
 28 64  1  0  0  0  0
 28 65  1  0  0  0  0
 28 66  1  0  0  0  0
 29 67  1  0  0  0  0
 29 68  1  0  0  0  0
 29 69  1  0  0  0  0
 30 70  1  0  0  0  0
 30 71  1  0  0  0  0
 30 72  1  0  0  0  0
M  END
> <PUBCHEM_COMPOUND_CID>
526040
> <PUBCHEM_COMPOUND_CANONICALIZED>
1
> <PUBCHEM_CACTVS_COMPLEXITY>
613
> <PUBCHEM_CACTVS_HBOND_ACCEPTOR>
3
> <PUBCHEM_CACTVS_HBOND_DONOR>
0
> <PUBCHEM_CACTVS_ROTATABLE_BOND>
5
> <PUBCHEM_CACTVS_SUBSKEYS>
AAADcfB4MAwAAAAAAAAAAAAAAAAAAYAAAAAwYMAAAAAAAGDBAAAAGhAAAEAADxSgmAJyBoAABAGAAiBCAAACCAAgIAAAiAAGiIgNJiKEMRqAMCIkwBEKqAeAwPAPoAABAAAQQADAAAYAACCAAIAADAAAAA==
> <PUBCHEM_IUPAC_OPENEYE_NAME>
(2-methoxy-13-methyl-3-trimethylsilyloxy-6,7,8,9,11,12,14,15,16,17-decahydrocyclopenta[a]phenanthren-17-yl)oxy-trimethyl-silane
> <PUBCHEM_IUPAC_CAS_NAME>
(2-methoxy-13-methyl-3-trimethylsilyloxy-6,7,8,9,11,12,14,15,16,17-decahydrocyclopenta[a]phenanthren-17-yl)oxy-trimethylsilane
> <PUBCHEM_IUPAC_NAME_MARKUP>
(2-methoxy-13-methyl-3-trimethylsilyloxy-6,7,8,9,11,12,14,15,16,17-decahydrocyclopenta[a]phenanthren-17-yl)oxy-trimethylsilane
> <PUBCHEM_IUPAC_NAME>
(2-methoxy-13-methyl-3-trimethylsilyloxy-6,7,8,9,11,12,14,15,16,17-decahydrocyclopenta[a]phenanthren-17-yl)oxy-trimethylsilane
> <PUBCHEM_IUPAC_SYSTEMATIC_NAME>
(2-methoxy-13-methyl-3-trimethylsilyloxy-6,7,8,9,11,12,14,15,16,17-decahydrocyclopenta[a]phenanthren-17-yl)oxy-trimethyl-silane
> <PUBCHEM_IUPAC_TRADITIONAL_NAME>
(2-methoxy-13-methyl-3-trimethylsilyloxy-6,7,8,9,11,12,14,15,16,17-decahydrocyclopenta[a]phenanthren-17-yl)oxy-trimethyl-silane
> <PUBCHEM_IUPAC_INCHI>
InChI=1S/C25H42O3Si2/c1-25-14-13-18-19(21(25)11-12-24(25)28-30(6,7)8)10-9-17-15-23(27-29(3,4)5)22(26-2)16-20(17)18/h15-16,18-19,21,24H,9-14H2,1-8H3
> <PUBCHEM_IUPAC_INCHIKEY>
FLTQSMBAZOOLHF-UHFFFAOYSA-N
> <PUBCHEM_EXACT_MASS>
446.26724827
> <PUBCHEM_MOLECULAR_FORMULA>
C25H42O3Si2
> <PUBCHEM_MOLECULAR_WEIGHT>
446.8
> <PUBCHEM_OPENEYE_CAN_SMILES>
CC12CCC3C(C1CCC2O[Si](C)(C)C)CCC4=CC(=C(C=C34)OC)O[Si](C)(C)C
> <PUBCHEM_OPENEYE_ISO_SMILES>
CC12CCC3C(C1CCC2O[Si](C)(C)C)CCC4=CC(=C(C=C34)OC)O[Si](C)(C)C
> <PUBCHEM_CACTVS_TPSA>
27.7
> <PUBCHEM_MONOISOTOPIC_WEIGHT>
446.26724827
> <PUBCHEM_TOTAL_CHARGE>
0
> <PUBCHEM_HEAVY_ATOM_COUNT>
30
> <PUBCHEM_ATOM_DEF_STEREO_COUNT>
0
> <PUBCHEM_ATOM_UDEF_STEREO_COUNT>
5
> <PUBCHEM_BOND_DEF_STEREO_COUNT>
0
> <PUBCHEM_BOND_UDEF_STEREO_COUNT>
0
> <PUBCHEM_ISOTOPIC_ATOM_COUNT>
0
> <PUBCHEM_COMPONENT_COUNT>
1
> <PUBCHEM_CACTVS_TAUTO_COUNT>
-1
> <PUBCHEM_COORDINATE_TYPE>
1
5
255
> <PUBCHEM_BONDANNOTATIONS>
10  14  3
17  19  8
17  20  8
19  21  8
20  22  8
21  23  8
22  23  8
9  3  3
6  16  3
7  12  3
8  15  3
$$$$
