526189
  -OEChem-10302200292D
 19 19  0     1  0  0  0  0  0999 V2000
    4.5691   -0.2229    0.0000 S   0  0  0  0  0  0  0  0  0  0  0  0
    4.3479    1.1739    0.0000 O   0  0  0  0  0  0  0  0  0  0  0  0
    2.0000    0.0861    0.0000 O   0  0  0  0  0  0  0  0  0  0  0  0
    3.7601    0.3649    0.0000 C   0  0  3  0  0  0  0  0  0  0  0  0
    3.2601   -1.1739    0.0000 C   0  0  0  0  0  0  0  0  0  0  0  0
    2.9511   -0.2229    0.0000 C   0  0  0  0  0  0  0  0  0  0  0  0
    4.2601   -1.1739    0.0000 C   0  0  0  0  0  0  0  0  0  0  0  0
    3.1723    1.1739    0.0000 C   0  0  0  0  0  0  0  0  0  0  0  0
    5.3424    1.0694    0.0000 C   0  0  0  0  0  0  0  0  0  0  0  0
    2.6536   -1.3028    0.0000 H   0  0  0  0  0  0  0  0  0  0  0  0
    3.3249   -1.7905    0.0000 H   0  0  0  0  0  0  0  0  0  0  0  0
    4.1953   -1.7905    0.0000 H   0  0  0  0  0  0  0  0  0  0  0  0
    4.8665   -1.3028    0.0000 H   0  0  0  0  0  0  0  0  0  0  0  0
    3.6739    1.5384    0.0000 H   0  0  0  0  0  0  0  0  0  0  0  0
    2.8079    1.6755    0.0000 H   0  0  0  0  0  0  0  0  0  0  0  0
    2.6707    0.8095    0.0000 H   0  0  0  0  0  0  0  0  0  0  0  0
    5.2776    0.4528    0.0000 H   0  0  0  0  0  0  0  0  0  0  0  0
    5.9590    1.0046    0.0000 H   0  0  0  0  0  0  0  0  0  0  0  0
    5.4072    1.6860    0.0000 H   0  0  0  0  0  0  0  0  0  0  0  0
  1  4  1  0  0  0  0
  1  7  1  0  0  0  0
  2  4  1  0  0  0  0
  2  9  1  0  0  0  0
  3  6  2  0  0  0  0
  4  6  1  0  0  0  0
  4  8  1  0  0  0  0
  5  6  1  0  0  0  0
  5  7  1  0  0  0  0
  5 10  1  0  0  0  0
  5 11  1  0  0  0  0
  7 12  1  0  0  0  0
  7 13  1  0  0  0  0
  8 14  1  0  0  0  0
  8 15  1  0  0  0  0
  8 16  1  0  0  0  0
  9 17  1  0  0  0  0
  9 18  1  0  0  0  0
  9 19  1  0  0  0  0
M  END
> <PUBCHEM_COMPOUND_CID>
526189
> <PUBCHEM_COMPOUND_CANONICALIZED>
1
> <PUBCHEM_CACTVS_COMPLEXITY>
135
> <PUBCHEM_CACTVS_HBOND_ACCEPTOR>
3
> <PUBCHEM_CACTVS_HBOND_DONOR>
0
> <PUBCHEM_CACTVS_ROTATABLE_BOND>
1
> <PUBCHEM_CACTVS_SUBSKEYS>
AAADccBgMABAAAAAAAAAAAAAAAAAASAAAAAAAAAAAAAAAAAAAAAAGgQAAAAACASEwAKCAAAABAgIAIAQAAIAAAAAABAAAAFAAAAAAAIgAAQAAAAEAAAgAAAAAAAAAAAAAAAAAAAAAAAAAAAAAAAAAAAAAA==
> <PUBCHEM_IUPAC_OPENEYE_NAME>
2-methoxy-2-methyl-tetrahydrothiophen-3-one
> <PUBCHEM_IUPAC_CAS_NAME>
2-methoxy-2-methyl-3-thiolanone
> <PUBCHEM_IUPAC_NAME_MARKUP>
2-methoxy-2-methylthiolan-3-one
> <PUBCHEM_IUPAC_NAME>
2-methoxy-2-methylthiolan-3-one
> <PUBCHEM_IUPAC_SYSTEMATIC_NAME>
2-methoxy-2-methyl-thiolan-3-one
> <PUBCHEM_IUPAC_TRADITIONAL_NAME>
2-methoxy-2-methyl-tetrahydrothiophen-3-one
> <PUBCHEM_IUPAC_INCHI>
InChI=1S/C6H10O2S/c1-6(8-2)5(7)3-4-9-6/h3-4H2,1-2H3
> <PUBCHEM_IUPAC_INCHIKEY>
FCDCVDDFZHJGKZ-UHFFFAOYSA-N
> <PUBCHEM_XLOGP3_AA>
0.6
> <PUBCHEM_EXACT_MASS>
146.04015073
> <PUBCHEM_MOLECULAR_FORMULA>
C6H10O2S
> <PUBCHEM_MOLECULAR_WEIGHT>
146.21
> <PUBCHEM_OPENEYE_CAN_SMILES>
CC1(C(=O)CCS1)OC
> <PUBCHEM_OPENEYE_ISO_SMILES>
CC1(C(=O)CCS1)OC
> <PUBCHEM_CACTVS_TPSA>
51.6
> <PUBCHEM_MONOISOTOPIC_WEIGHT>
146.04015073
> <PUBCHEM_TOTAL_CHARGE>
0
> <PUBCHEM_HEAVY_ATOM_COUNT>
9
> <PUBCHEM_ATOM_DEF_STEREO_COUNT>
0
> <PUBCHEM_ATOM_UDEF_STEREO_COUNT>
1
> <PUBCHEM_BOND_DEF_STEREO_COUNT>
0
> <PUBCHEM_BOND_UDEF_STEREO_COUNT>
0
> <PUBCHEM_ISOTOPIC_ATOM_COUNT>
0
> <PUBCHEM_COMPONENT_COUNT>
1
> <PUBCHEM_CACTVS_TAUTO_COUNT>
-1
> <PUBCHEM_COORDINATE_TYPE>
1
5
255
> <PUBCHEM_BONDANNOTATIONS>
4  8  3
$$$$
