526145
  -OEChem-10302200292D
 80 80  0     1  0  0  0  0  0999 V2000
    2.9511   -4.0240    0.0000 Si  0  0  0  0  0  0  0  0  0  0  0  0
   11.5636    3.9750    0.0000 Si  0  0  0  0  0  0  0  0  0  0  0  0
    3.9021   -4.3330    0.0000 O   0  0  0  0  0  0  0  0  0  0  0  0
    9.8596   -3.3037    0.0000 O   0  0  0  0  0  0  0  0  0  0  0  0
   11.5636    2.9750    0.0000 O   0  0  0  0  0  0  0  0  0  0  0  0
    9.8316    2.9750    0.0000 O   0  0  0  0  0  0  0  0  0  0  0  0
    8.0995   -3.0250    0.0000 C   0  0  3  0  0  0  0  0  0  0  0  0
    7.2905   -3.6128    0.0000 C   0  0  3  0  0  0  0  0  0  0  0  0
    8.0995   -2.0250    0.0000 C   0  0  0  0  0  0  0  0  0  0  0  0
    8.9656   -1.5250    0.0000 C   0  0  0  0  0  0  0  0  0  0  0  0
    8.9086   -3.6128    0.0000 C   0  0  0  0  0  0  0  0  0  0  0  0
    7.5995   -4.5638    0.0000 C   0  0  0  0  0  0  0  0  0  0  0  0
    8.9656   -0.5250    0.0000 C   0  0  0  0  0  0  0  0  0  0  0  0
    6.3395   -3.3037    0.0000 C   0  0  0  0  0  0  0  0  0  0  0  0
    8.5995   -4.5638    0.0000 C   0  0  0  0  0  0  0  0  0  0  0  0
    4.6453   -3.6639    0.0000 C   0  0  3  0  0  0  0  0  0  0  0  0
    9.8316   -0.0250    0.0000 C   0  0  0  0  0  0  0  0  0  0  0  0
    5.5963   -3.9729    0.0000 C   0  0  0  0  0  0  0  0  0  0  0  0
    4.4374   -2.6857    0.0000 C   0  0  0  0  0  0  0  0  0  0  0  0
    3.4863   -2.3767    0.0000 C   0  0  0  0  0  0  0  0  0  0  0  0
    9.8316    0.9750    0.0000 C   0  0  0  0  0  0  0  0  0  0  0  0
    3.2784   -1.3985    0.0000 C   0  0  0  0  0  0  0  0  0  0  0  0
   10.6976    1.4750    0.0000 C   0  0  0  0  0  0  0  0  0  0  0  0
    2.0000   -3.7150    0.0000 C   0  0  0  0  0  0  0  0  0  0  0  0
    2.6420   -4.9750    0.0000 C   0  0  0  0  0  0  0  0  0  0  0  0
    3.2601   -3.0729    0.0000 C   0  0  0  0  0  0  0  0  0  0  0  0
    2.3273   -1.0895    0.0000 C   0  0  0  0  0  0  0  0  0  0  0  0
   10.6976    2.4750    0.0000 C   0  0  0  0  0  0  0  0  0  0  0  0
    2.1194   -0.1114    0.0000 C   0  0  0  0  0  0  0  0  0  0  0  0
   11.5636    4.9750    0.0000 C   0  0  0  0  0  0  0  0  0  0  0  0
   12.5636    3.9750    0.0000 C   0  0  0  0  0  0  0  0  0  0  0  0
   10.5636    3.9750    0.0000 C   0  0  0  0  0  0  0  0  0  0  0  0
    8.6520   -2.7435    0.0000 H   0  0  0  0  0  0  0  0  0  0  0  0
    6.8521   -4.0512    0.0000 H   0  0  0  0  0  0  0  0  0  0  0  0
    7.8875   -1.4424    0.0000 H   0  0  0  0  0  0  0  0  0  0  0  0
    7.4890   -2.1326    0.0000 H   0  0  0  0  0  0  0  0  0  0  0  0
    9.1776   -2.1076    0.0000 H   0  0  0  0  0  0  0  0  0  0  0  0
    9.5761   -1.4173    0.0000 H   0  0  0  0  0  0  0  0  0  0  0  0
    7.2351   -5.0654    0.0000 H   0  0  0  0  0  0  0  0  0  0  0  0
    8.7535    0.0576    0.0000 H   0  0  0  0  0  0  0  0  0  0  0  0
    8.3550   -0.6326    0.0000 H   0  0  0  0  0  0  0  0  0  0  0  0
    6.2105   -2.6973    0.0000 H   0  0  0  0  0  0  0  0  0  0  0  0
    8.9640   -5.0654    0.0000 H   0  0  0  0  0  0  0  0  0  0  0  0
    4.7742   -4.2703    0.0000 H   0  0  0  0  0  0  0  0  0  0  0  0
   10.0436   -0.6076    0.0000 H   0  0  0  0  0  0  0  0  0  0  0  0
   10.4422    0.0827    0.0000 H   0  0  0  0  0  0  0  0  0  0  0  0
    5.7252   -4.5793    0.0000 H   0  0  0  0  0  0  0  0  0  0  0  0
    5.0570   -2.6641    0.0000 H   0  0  0  0  0  0  0  0  0  0  0  0
    4.5236   -2.0717    0.0000 H   0  0  0  0  0  0  0  0  0  0  0  0
    2.8667   -2.3983    0.0000 H   0  0  0  0  0  0  0  0  0  0  0  0
    3.4000   -2.9907    0.0000 H   0  0  0  0  0  0  0  0  0  0  0  0
    9.6195    1.5576    0.0000 H   0  0  0  0  0  0  0  0  0  0  0  0
    9.2210    0.8674    0.0000 H   0  0  0  0  0  0  0  0  0  0  0  0
    3.8980   -1.3769    0.0000 H   0  0  0  0  0  0  0  0  0  0  0  0
    3.3647   -0.7846    0.0000 H   0  0  0  0  0  0  0  0  0  0  0  0
   10.9097    0.8924    0.0000 H   0  0  0  0  0  0  0  0  0  0  0  0
   11.3082    1.5827    0.0000 H   0  0  0  0  0  0  0  0  0  0  0  0
    2.1916   -3.1253    0.0000 H   0  0  0  0  0  0  0  0  0  0  0  0
    1.4103   -3.5234    0.0000 H   0  0  0  0  0  0  0  0  0  0  0  0
    1.8084   -4.3046    0.0000 H   0  0  0  0  0  0  0  0  0  0  0  0
    2.0524   -4.7834    0.0000 H   0  0  0  0  0  0  0  0  0  0  0  0
    2.4504   -5.5647    0.0000 H   0  0  0  0  0  0  0  0  0  0  0  0
    3.2317   -5.1666    0.0000 H   0  0  0  0  0  0  0  0  0  0  0  0
    3.8497   -3.2645    0.0000 H   0  0  0  0  0  0  0  0  0  0  0  0
    3.4517   -2.4833    0.0000 H   0  0  0  0  0  0  0  0  0  0  0  0
    2.6704   -2.8813    0.0000 H   0  0  0  0  0  0  0  0  0  0  0  0
    1.7077   -1.1112    0.0000 H   0  0  0  0  0  0  0  0  0  0  0  0
    2.2410   -1.7035    0.0000 H   0  0  0  0  0  0  0  0  0  0  0  0
    2.7259    0.0175    0.0000 H   0  0  0  0  0  0  0  0  0  0  0  0
    1.9905    0.4951    0.0000 H   0  0  0  0  0  0  0  0  0  0  0  0
    1.5130   -0.2403    0.0000 H   0  0  0  0  0  0  0  0  0  0  0  0
   12.1836    4.9750    0.0000 H   0  0  0  0  0  0  0  0  0  0  0  0
   11.5636    5.5950    0.0000 H   0  0  0  0  0  0  0  0  0  0  0  0
   10.9436    4.9750    0.0000 H   0  0  0  0  0  0  0  0  0  0  0  0
   12.5636    3.3550    0.0000 H   0  0  0  0  0  0  0  0  0  0  0  0
   13.1836    3.9750    0.0000 H   0  0  0  0  0  0  0  0  0  0  0  0
   12.5636    4.5950    0.0000 H   0  0  0  0  0  0  0  0  0  0  0  0
   10.5636    4.5950    0.0000 H   0  0  0  0  0  0  0  0  0  0  0  0
    9.9436    3.9750    0.0000 H   0  0  0  0  0  0  0  0  0  0  0  0
   10.5636    3.3550    0.0000 H   0  0  0  0  0  0  0  0  0  0  0  0
  1  3  1  0  0  0  0
  1 24  1  0  0  0  0
  1 25  1  0  0  0  0
  1 26  1  0  0  0  0
  2  5  1  0  0  0  0
  2 30  1  0  0  0  0
  2 31  1  0  0  0  0
  2 32  1  0  0  0  0
  3 16  1  0  0  0  0
  4 11  2  0  0  0  0
  5 28  1  0  0  0  0
  6 28  2  0  0  0  0
  7  8  1  0  0  0  0
  7  9  1  0  0  0  0
  7 11  1  0  0  0  0
  7 33  1  0  0  0  0
  8 12  1  0  0  0  0
  8 14  1  0  0  0  0
  8 34  1  0  0  0  0
  9 10  1  0  0  0  0
  9 35  1  0  0  0  0
  9 36  1  0  0  0  0
 10 13  1  0  0  0  0
 10 37  1  0  0  0  0
 10 38  1  0  0  0  0
 11 15  1  0  0  0  0
 12 15  2  0  0  0  0
 12 39  1  0  0  0  0
 13 17  1  0  0  0  0
 13 40  1  0  0  0  0
 13 41  1  0  0  0  0
 14 18  2  3  0  0  0
 14 42  1  0  0  0  0
 15 43  1  0  0  0  0
 16 18  1  0  0  0  0
 16 19  1  0  0  0  0
 16 44  1  0  0  0  0
 17 21  1  0  0  0  0
 17 45  1  0  0  0  0
 17 46  1  0  0  0  0
 18 47  1  0  0  0  0
 19 20  1  0  0  0  0
 19 48  1  0  0  0  0
 19 49  1  0  0  0  0
 20 22  1  0  0  0  0
 20 50  1  0  0  0  0
 20 51  1  0  0  0  0
 21 23  1  0  0  0  0
 21 52  1  0  0  0  0
 21 53  1  0  0  0  0
 22 27  1  0  0  0  0
 22 54  1  0  0  0  0
 22 55  1  0  0  0  0
 23 28  1  0  0  0  0
 23 56  1  0  0  0  0
 23 57  1  0  0  0  0
 24 58  1  0  0  0  0
 24 59  1  0  0  0  0
 24 60  1  0  0  0  0
 25 61  1  0  0  0  0
 25 62  1  0  0  0  0
 25 63  1  0  0  0  0
 26 64  1  0  0  0  0
 26 65  1  0  0  0  0
 26 66  1  0  0  0  0
 27 29  1  0  0  0  0
 27 67  1  0  0  0  0
 27 68  1  0  0  0  0
 29 69  1  0  0  0  0
 29 70  1  0  0  0  0
 29 71  1  0  0  0  0
 30 72  1  0  0  0  0
 30 73  1  0  0  0  0
 30 74  1  0  0  0  0
 31 75  1  0  0  0  0
 31 76  1  0  0  0  0
 31 77  1  0  0  0  0
 32 78  1  0  0  0  0
 32 79  1  0  0  0  0
 32 80  1  0  0  0  0
M  END
> <PUBCHEM_COMPOUND_CID>
526145
> <PUBCHEM_COMPOUND_CANONICALIZED>
1
> <PUBCHEM_CACTVS_COMPLEXITY>
629
> <PUBCHEM_CACTVS_HBOND_ACCEPTOR>
4
> <PUBCHEM_CACTVS_HBOND_DONOR>
0
> <PUBCHEM_CACTVS_ROTATABLE_BOND>
17
> <PUBCHEM_CACTVS_SUBSKEYS>
AAADcfB4OAwAAAAAAAAAAAAAAAAAAQAAAAAAAAAAAAAAAAAAAAAAGhAAAEAADRSggAJCCAAAAAGIAKDSCAAAAAAgAAAICAEAAEgABBIAAQAAEAAEgAAIAYOIyOCOgAAAAAAAAAAAAAAAAAAAAAAAAAAAAA==
> <PUBCHEM_IUPAC_OPENEYE_NAME>
trimethylsilyl 7-[2-oxo-5-(3-trimethylsilyloxyoct-1-enyl)cyclopent-3-en-1-yl]heptanoate
> <PUBCHEM_IUPAC_CAS_NAME>
7-[2-oxo-5-(3-trimethylsilyloxyoct-1-enyl)-1-cyclopent-3-enyl]heptanoic acid trimethylsilyl ester
> <PUBCHEM_IUPAC_NAME_MARKUP>
trimethylsilyl 7-[2-oxo-5-(3-trimethylsilyloxyoct-1-enyl)cyclopent-3-en-1-yl]heptanoate
> <PUBCHEM_IUPAC_NAME>
trimethylsilyl 7-[2-oxo-5-(3-trimethylsilyloxyoct-1-enyl)cyclopent-3-en-1-yl]heptanoate
> <PUBCHEM_IUPAC_SYSTEMATIC_NAME>
trimethylsilyl 7-[2-oxidanylidene-5-(3-trimethylsilyloxyoct-1-enyl)cyclopent-3-en-1-yl]heptanoate
> <PUBCHEM_IUPAC_TRADITIONAL_NAME>
7-[2-keto-5-(3-trimethylsilyloxyoct-1-enyl)cyclopent-3-en-1-yl]enanthic acid trimethylsilyl ester
> <PUBCHEM_IUPAC_INCHI>
InChI=1S/C26H48O4Si2/c1-8-9-12-15-23(29-31(2,3)4)20-18-22-19-21-25(27)24(22)16-13-10-11-14-17-26(28)30-32(5,6)7/h18-24H,8-17H2,1-7H3
> <PUBCHEM_IUPAC_INCHIKEY>
FWQYNRGDLADIBR-UHFFFAOYSA-N
> <PUBCHEM_EXACT_MASS>
480.30911308
> <PUBCHEM_MOLECULAR_FORMULA>
C26H48O4Si2
> <PUBCHEM_MOLECULAR_WEIGHT>
480.8
> <PUBCHEM_OPENEYE_CAN_SMILES>
CCCCCC(C=CC1C=CC(=O)C1CCCCCCC(=O)O[Si](C)(C)C)O[Si](C)(C)C
> <PUBCHEM_OPENEYE_ISO_SMILES>
CCCCCC(C=CC1C=CC(=O)C1CCCCCCC(=O)O[Si](C)(C)C)O[Si](C)(C)C
> <PUBCHEM_CACTVS_TPSA>
52.6
> <PUBCHEM_MONOISOTOPIC_WEIGHT>
480.30911308
> <PUBCHEM_TOTAL_CHARGE>
0
> <PUBCHEM_HEAVY_ATOM_COUNT>
32
> <PUBCHEM_ATOM_DEF_STEREO_COUNT>
0
> <PUBCHEM_ATOM_UDEF_STEREO_COUNT>
3
> <PUBCHEM_BOND_DEF_STEREO_COUNT>
0
> <PUBCHEM_BOND_UDEF_STEREO_COUNT>
1
> <PUBCHEM_ISOTOPIC_ATOM_COUNT>
0
> <PUBCHEM_COMPONENT_COUNT>
1
> <PUBCHEM_CACTVS_TAUTO_COUNT>
-1
> <PUBCHEM_COORDINATE_TYPE>
1
5
255
> <PUBCHEM_BONDANNOTATIONS>
14  18  1
16  19  3
7  9  3
8  14  3
$$$$
