526139
  -OEChem-10302200292D
 41 40  0     1  0  0  0  0  0999 V2000
    8.0622    1.0000    0.0000 Si  0  0  0  0  0  0  0  0  0  0  0  0
    7.1962    0.5000    0.0000 O   0  0  0  0  0  0  0  0  0  0  0  0
    6.3301    2.0000    0.0000 O   0  0  0  0  0  0  0  0  0  0  0  0
    5.4641    0.5000    0.0000 C   0  0  3  0  0  0  0  0  0  0  0  0
    4.5981    1.0000    0.0000 C   0  0  0  0  0  0  0  0  0  0  0  0
    5.4641   -0.5000    0.0000 C   0  0  0  0  0  0  0  0  0  0  0  0
    3.7320    0.5000    0.0000 C   0  0  0  0  0  0  0  0  0  0  0  0
    6.3301    1.0000    0.0000 C   0  0  0  0  0  0  0  0  0  0  0  0
    4.5981   -1.0000    0.0000 C   0  0  0  0  0  0  0  0  0  0  0  0
    2.8660    1.0000    0.0000 C   0  0  0  0  0  0  0  0  0  0  0  0
    8.9282    1.5000    0.0000 C   0  0  0  0  0  0  0  0  0  0  0  0
    8.5622    0.1340    0.0000 C   0  0  0  0  0  0  0  0  0  0  0  0
    7.5622    1.8660    0.0000 C   0  0  0  0  0  0  0  0  0  0  0  0
    4.5981   -2.0000    0.0000 C   0  0  0  0  0  0  0  0  0  0  0  0
    2.0000    0.5000    0.0000 C   0  0  0  0  0  0  0  0  0  0  0  0
    5.4641    1.1200    0.0000 H   0  0  0  0  0  0  0  0  0  0  0  0
    4.9966    1.4750    0.0000 H   0  0  0  0  0  0  0  0  0  0  0  0
    4.1996    1.4750    0.0000 H   0  0  0  0  0  0  0  0  0  0  0  0
    5.6762   -1.0826    0.0000 H   0  0  0  0  0  0  0  0  0  0  0  0
    6.0747   -0.3923    0.0000 H   0  0  0  0  0  0  0  0  0  0  0  0
    3.3335    0.0251    0.0000 H   0  0  0  0  0  0  0  0  0  0  0  0
    4.1306    0.0251    0.0000 H   0  0  0  0  0  0  0  0  0  0  0  0
    4.3860   -0.4174    0.0000 H   0  0  0  0  0  0  0  0  0  0  0  0
    3.9875   -1.1077    0.0000 H   0  0  0  0  0  0  0  0  0  0  0  0
    3.2646    1.4750    0.0000 H   0  0  0  0  0  0  0  0  0  0  0  0
    2.4675    1.4750    0.0000 H   0  0  0  0  0  0  0  0  0  0  0  0
    9.2382    0.9631    0.0000 H   0  0  0  0  0  0  0  0  0  0  0  0
    9.4651    1.8100    0.0000 H   0  0  0  0  0  0  0  0  0  0  0  0
    8.6182    2.0369    0.0000 H   0  0  0  0  0  0  0  0  0  0  0  0
    8.0252   -0.1760    0.0000 H   0  0  0  0  0  0  0  0  0  0  0  0
    8.8722   -0.4030    0.0000 H   0  0  0  0  0  0  0  0  0  0  0  0
    9.0991    0.4440    0.0000 H   0  0  0  0  0  0  0  0  0  0  0  0
    8.0991    2.1760    0.0000 H   0  0  0  0  0  0  0  0  0  0  0  0
    7.2522    2.4030    0.0000 H   0  0  0  0  0  0  0  0  0  0  0  0
    7.0252    1.5560    0.0000 H   0  0  0  0  0  0  0  0  0  0  0  0
    3.9781   -2.0000    0.0000 H   0  0  0  0  0  0  0  0  0  0  0  0
    4.5981   -2.6200    0.0000 H   0  0  0  0  0  0  0  0  0  0  0  0
    5.2181   -2.0000    0.0000 H   0  0  0  0  0  0  0  0  0  0  0  0
    1.6900    1.0369    0.0000 H   0  0  0  0  0  0  0  0  0  0  0  0
    1.4631    0.1900    0.0000 H   0  0  0  0  0  0  0  0  0  0  0  0
    2.3100   -0.0369    0.0000 H   0  0  0  0  0  0  0  0  0  0  0  0
  1  2  1  0  0  0  0
  1 11  1  0  0  0  0
  1 12  1  0  0  0  0
  1 13  1  0  0  0  0
  2  8  1  0  0  0  0
  3  8  2  0  0  0  0
  4  5  1  0  0  0  0
  4  6  1  0  0  0  0
  4  8  1  0  0  0  0
  4 16  1  0  0  0  0
  5  7  1  0  0  0  0
  5 17  1  0  0  0  0
  5 18  1  0  0  0  0
  6  9  1  0  0  0  0
  6 19  1  0  0  0  0
  6 20  1  0  0  0  0
  7 10  1  0  0  0  0
  7 21  1  0  0  0  0
  7 22  1  0  0  0  0
  9 14  1  0  0  0  0
  9 23  1  0  0  0  0
  9 24  1  0  0  0  0
 10 15  1  0  0  0  0
 10 25  1  0  0  0  0
 10 26  1  0  0  0  0
 11 27  1  0  0  0  0
 11 28  1  0  0  0  0
 11 29  1  0  0  0  0
 12 30  1  0  0  0  0
 12 31  1  0  0  0  0
 12 32  1  0  0  0  0
 13 33  1  0  0  0  0
 13 34  1  0  0  0  0
 13 35  1  0  0  0  0
 14 36  1  0  0  0  0
 14 37  1  0  0  0  0
 14 38  1  0  0  0  0
 15 39  1  0  0  0  0
 15 40  1  0  0  0  0
 15 41  1  0  0  0  0
M  END
> <PUBCHEM_COMPOUND_CID>
526139
> <PUBCHEM_COMPOUND_CANONICALIZED>
1
> <PUBCHEM_CACTVS_COMPLEXITY>
185
> <PUBCHEM_CACTVS_HBOND_ACCEPTOR>
2
> <PUBCHEM_CACTVS_HBOND_DONOR>
0
> <PUBCHEM_CACTVS_ROTATABLE_BOND>
8
> <PUBCHEM_CACTVS_SUBSKEYS>
AAADceBwMAgAAAAAAAAAAAAAAAAAAAAAAAAAAAAAAAAAAAAAAAAAGhAAAEAADQCAgABCCAAAAAEIAACQCAAAAAAAAAAAAAEAAAAAABIAAAAAAAAEAAAAAAGIyIAOAAAAAAAAAAAAAAAAAAAAAAAAAAAAAA==
> <PUBCHEM_IUPAC_OPENEYE_NAME>
trimethylsilyl 2-propylhexanoate
> <PUBCHEM_IUPAC_CAS_NAME>
2-propylhexanoic acid trimethylsilyl ester
> <PUBCHEM_IUPAC_NAME_MARKUP>
trimethylsilyl 2-propylhexanoate
> <PUBCHEM_IUPAC_NAME>
trimethylsilyl 2-propylhexanoate
> <PUBCHEM_IUPAC_SYSTEMATIC_NAME>
trimethylsilyl 2-propylhexanoate
> <PUBCHEM_IUPAC_TRADITIONAL_NAME>
2-propylhexanoic acid trimethylsilyl ester
> <PUBCHEM_IUPAC_INCHI>
InChI=1S/C12H26O2Si/c1-6-8-10-11(9-7-2)12(13)14-15(3,4)5/h11H,6-10H2,1-5H3
> <PUBCHEM_IUPAC_INCHIKEY>
CSFLJIAYHIVMSR-UHFFFAOYSA-N
> <PUBCHEM_EXACT_MASS>
230.170206602
> <PUBCHEM_MOLECULAR_FORMULA>
C12H26O2Si
> <PUBCHEM_MOLECULAR_WEIGHT>
230.42
> <PUBCHEM_OPENEYE_CAN_SMILES>
CCCCC(CCC)C(=O)O[Si](C)(C)C
> <PUBCHEM_OPENEYE_ISO_SMILES>
CCCCC(CCC)C(=O)O[Si](C)(C)C
> <PUBCHEM_CACTVS_TPSA>
26.3
> <PUBCHEM_MONOISOTOPIC_WEIGHT>
230.170206602
> <PUBCHEM_TOTAL_CHARGE>
0
> <PUBCHEM_HEAVY_ATOM_COUNT>
15
> <PUBCHEM_ATOM_DEF_STEREO_COUNT>
0
> <PUBCHEM_ATOM_UDEF_STEREO_COUNT>
1
> <PUBCHEM_BOND_DEF_STEREO_COUNT>
0
> <PUBCHEM_BOND_UDEF_STEREO_COUNT>
0
> <PUBCHEM_ISOTOPIC_ATOM_COUNT>
0
> <PUBCHEM_COMPONENT_COUNT>
1
> <PUBCHEM_CACTVS_TAUTO_COUNT>
-1
> <PUBCHEM_COORDINATE_TYPE>
1
5
255
> <PUBCHEM_BONDANNOTATIONS>
4  6  3
$$$$
