526150
  -OEChem-10302200292D
 29 28  0     1  0  0  0  0  0999 V2000
    3.7320    0.5000    0.0000 O   0  0  0  0  0  0  0  0  0  0  0  0
    8.0622   -0.0000    0.0000 O   0  0  0  0  0  0  0  0  0  0  0  0
    7.1962    1.5000    0.0000 O   0  0  0  0  0  0  0  0  0  0  0  0
    2.8660   -1.0000    0.0000 O   0  0  0  0  0  0  0  0  0  0  0  0
    4.5981    0.0000    0.0000 C   0  0  3  0  0  0  0  0  0  0  0  0
    5.4641    0.5000    0.0000 C   0  0  0  0  0  0  0  0  0  0  0  0
    4.5981   -1.0000    0.0000 C   0  0  0  0  0  0  0  0  0  0  0  0
    6.3301    0.0000    0.0000 C   0  0  0  0  0  0  0  0  0  0  0  0
    3.7320   -1.5000    0.0000 C   0  0  0  0  0  0  0  0  0  0  0  0
    7.1962    0.5000    0.0000 C   0  0  0  0  0  0  0  0  0  0  0  0
    2.8660   -0.0000    0.0000 C   0  0  0  0  0  0  0  0  0  0  0  0
    2.0000    0.5000    0.0000 C   0  0  0  0  0  0  0  0  0  0  0  0
    8.9282    0.5000    0.0000 C   0  0  0  0  0  0  0  0  0  0  0  0
    4.5981    0.6200    0.0000 H   0  0  0  0  0  0  0  0  0  0  0  0
    5.8626    0.9749    0.0000 H   0  0  0  0  0  0  0  0  0  0  0  0
    5.0656    0.9749    0.0000 H   0  0  0  0  0  0  0  0  0  0  0  0
    4.8101   -1.5826    0.0000 H   0  0  0  0  0  0  0  0  0  0  0  0
    5.2087   -0.8923    0.0000 H   0  0  0  0  0  0  0  0  0  0  0  0
    5.9316   -0.4749    0.0000 H   0  0  0  0  0  0  0  0  0  0  0  0
    6.7287   -0.4749    0.0000 H   0  0  0  0  0  0  0  0  0  0  0  0
    3.4220   -0.9631    0.0000 H   0  0  0  0  0  0  0  0  0  0  0  0
    3.1951   -1.8100    0.0000 H   0  0  0  0  0  0  0  0  0  0  0  0
    4.0420   -2.0369    0.0000 H   0  0  0  0  0  0  0  0  0  0  0  0
    2.3100    1.0369    0.0000 H   0  0  0  0  0  0  0  0  0  0  0  0
    1.4631    0.8100    0.0000 H   0  0  0  0  0  0  0  0  0  0  0  0
    1.6900   -0.0369    0.0000 H   0  0  0  0  0  0  0  0  0  0  0  0
    9.2382   -0.0369    0.0000 H   0  0  0  0  0  0  0  0  0  0  0  0
    9.4651    0.8100    0.0000 H   0  0  0  0  0  0  0  0  0  0  0  0
    8.6182    1.0369    0.0000 H   0  0  0  0  0  0  0  0  0  0  0  0
  1  5  1  0  0  0  0
  1 11  1  0  0  0  0
  2 10  1  0  0  0  0
  2 13  1  0  0  0  0
  3 10  2  0  0  0  0
  4 11  2  0  0  0  0
  5  6  1  0  0  0  0
  5  7  1  0  0  0  0
  5 14  1  0  0  0  0
  6  8  1  0  0  0  0
  6 15  1  0  0  0  0
  6 16  1  0  0  0  0
  7  9  1  0  0  0  0
  7 17  1  0  0  0  0
  7 18  1  0  0  0  0
  8 10  1  0  0  0  0
  8 19  1  0  0  0  0
  8 20  1  0  0  0  0
  9 21  1  0  0  0  0
  9 22  1  0  0  0  0
  9 23  1  0  0  0  0
 11 12  1  0  0  0  0
 12 24  1  0  0  0  0
 12 25  1  0  0  0  0
 12 26  1  0  0  0  0
 13 27  1  0  0  0  0
 13 28  1  0  0  0  0
 13 29  1  0  0  0  0
M  END
> <PUBCHEM_COMPOUND_CID>
526150
> <PUBCHEM_COMPOUND_CANONICALIZED>
1
> <PUBCHEM_CACTVS_COMPLEXITY>
177
> <PUBCHEM_CACTVS_HBOND_ACCEPTOR>
4
> <PUBCHEM_CACTVS_HBOND_DONOR>
0
> <PUBCHEM_CACTVS_ROTATABLE_BOND>
7
> <PUBCHEM_CACTVS_SUBSKEYS>
AAADceBwOAAAAAAAAAAAAAAAAAAAAAAAAAAAAAAAAAAAAAAAAAAAGgAAAAAACBSggAICCAAABAAIAACQCAAAAAAAAAAAAAEAAAAAABIAAAACAAAEAAAAAAHKSAAAAAAAAAAAAAAAAAAAAAAAAAAAAAAAAA==
> <PUBCHEM_IUPAC_OPENEYE_NAME>
methyl 4-acetoxyhexanoate
> <PUBCHEM_IUPAC_CAS_NAME>
4-acetyloxyhexanoic acid methyl ester
> <PUBCHEM_IUPAC_NAME_MARKUP>
methyl 4-acetyloxyhexanoate
> <PUBCHEM_IUPAC_NAME>
methyl 4-acetyloxyhexanoate
> <PUBCHEM_IUPAC_SYSTEMATIC_NAME>
methyl 4-acetyloxyhexanoate
> <PUBCHEM_IUPAC_TRADITIONAL_NAME>
4-acetoxyhexanoic acid methyl ester
> <PUBCHEM_IUPAC_INCHI>
InChI=1S/C9H16O4/c1-4-8(13-7(2)10)5-6-9(11)12-3/h8H,4-6H2,1-3H3
> <PUBCHEM_IUPAC_INCHIKEY>
WRENTVUAYOGUPV-UHFFFAOYSA-N
> <PUBCHEM_XLOGP3_AA>
1.3
> <PUBCHEM_EXACT_MASS>
188.10485899
> <PUBCHEM_MOLECULAR_FORMULA>
C9H16O4
> <PUBCHEM_MOLECULAR_WEIGHT>
188.22
> <PUBCHEM_OPENEYE_CAN_SMILES>
CCC(CCC(=O)OC)OC(=O)C
> <PUBCHEM_OPENEYE_ISO_SMILES>
CCC(CCC(=O)OC)OC(=O)C
> <PUBCHEM_CACTVS_TPSA>
52.6
> <PUBCHEM_MONOISOTOPIC_WEIGHT>
188.10485899
> <PUBCHEM_TOTAL_CHARGE>
0
> <PUBCHEM_HEAVY_ATOM_COUNT>
13
> <PUBCHEM_ATOM_DEF_STEREO_COUNT>
0
> <PUBCHEM_ATOM_UDEF_STEREO_COUNT>
1
> <PUBCHEM_BOND_DEF_STEREO_COUNT>
0
> <PUBCHEM_BOND_UDEF_STEREO_COUNT>
0
> <PUBCHEM_ISOTOPIC_ATOM_COUNT>
0
> <PUBCHEM_COMPONENT_COUNT>
1
> <PUBCHEM_CACTVS_TAUTO_COUNT>
-1
> <PUBCHEM_COORDINATE_TYPE>
1
5
255
> <PUBCHEM_BONDANNOTATIONS>
5  7  3
$$$$
