526146
  -OEChem-10302200292D
107107  0     1  0  0  0  0  0999 V2000
   10.8069   -4.1739    0.0000 Si  0  0  0  0  0  0  0  0  0  0  0  0
   13.9912   -1.8604    0.0000 Si  0  0  0  0  0  0  0  0  0  0  0  0
    9.7559    3.0875    0.0000 Si  0  0  0  0  0  0  0  0  0  0  0  0
    2.9511   -2.6317    0.0000 Si  0  0  0  0  0  0  0  0  0  0  0  0
   10.4002   -3.2604    0.0000 O   0  0  0  0  0  0  0  0  0  0  0  0
   13.2480   -1.1913    0.0000 O   0  0  0  0  0  0  0  0  0  0  0  0
    9.7559    2.0875    0.0000 O   0  0  0  0  0  0  0  0  0  0  0  0
    3.9021   -2.9408    0.0000 O   0  0  0  0  0  0  0  0  0  0  0  0
    4.4374   -1.2935    0.0000 O   0  0  0  0  0  0  0  0  0  0  0  0
   10.6789   -1.5003    0.0000 C   0  0  3  0  0  0  0  0  0  0  0  0
   11.4879   -0.9125    0.0000 C   0  0  3  0  0  0  0  0  0  0  0  0
   10.9879   -2.4514    0.0000 C   0  0  3  0  0  0  0  0  0  0  0  0
   12.2970   -1.5003    0.0000 C   0  0  3  0  0  0  0  0  0  0  0  0
   11.9879   -2.4514    0.0000 C   0  0  0  0  0  0  0  0  0  0  0  0
    9.7279   -1.1913    0.0000 C   0  0  0  0  0  0  0  0  0  0  0  0
   11.4879    0.0875    0.0000 C   0  0  0  0  0  0  0  0  0  0  0  0
    8.9847   -1.8604    0.0000 C   0  0  0  0  0  0  0  0  0  0  0  0
   10.6219    0.5875    0.0000 C   0  0  0  0  0  0  0  0  0  0  0  0
   10.6219    1.5875    0.0000 C   0  0  3  0  0  0  0  0  0  0  0  0
   11.2136   -5.0875    0.0000 C   0  0  0  0  0  0  0  0  0  0  0  0
    9.8933   -4.5807    0.0000 C   0  0  0  0  0  0  0  0  0  0  0  0
   11.7204   -3.7672    0.0000 C   0  0  0  0  0  0  0  0  0  0  0  0
   14.7343   -2.5296    0.0000 C   0  0  0  0  0  0  0  0  0  0  0  0
   14.6603   -1.1173    0.0000 C   0  0  0  0  0  0  0  0  0  0  0  0
   13.3220   -2.6036    0.0000 C   0  0  0  0  0  0  0  0  0  0  0  0
    8.0337   -1.5514    0.0000 C   0  0  0  0  0  0  0  0  0  0  0  0
   11.4879    2.0875    0.0000 C   0  0  0  0  0  0  0  0  0  0  0  0
    7.2905   -2.2205    0.0000 C   0  0  0  0  0  0  0  0  0  0  0  0
   11.4879    3.0875    0.0000 C   0  0  0  0  0  0  0  0  0  0  0  0
    6.3395   -1.9115    0.0000 C   0  0  0  0  0  0  0  0  0  0  0  0
   12.3540    3.5875    0.0000 C   0  0  0  0  0  0  0  0  0  0  0  0
    9.7559    4.0875    0.0000 C   0  0  0  0  0  0  0  0  0  0  0  0
    8.7559    3.0875    0.0000 C   0  0  0  0  0  0  0  0  0  0  0  0
   10.7559    3.0875    0.0000 C   0  0  0  0  0  0  0  0  0  0  0  0
    5.5963   -2.5806    0.0000 C   0  0  0  0  0  0  0  0  0  0  0  0
   12.3540    4.5875    0.0000 C   0  0  0  0  0  0  0  0  0  0  0  0
   13.2200    5.0875    0.0000 C   0  0  0  0  0  0  0  0  0  0  0  0
    4.6453   -2.2716    0.0000 C   0  0  0  0  0  0  0  0  0  0  0  0
    2.0000   -2.3227    0.0000 C   0  0  0  0  0  0  0  0  0  0  0  0
    2.6420   -3.5828    0.0000 C   0  0  0  0  0  0  0  0  0  0  0  0
    3.2601   -1.6807    0.0000 C   0  0  0  0  0  0  0  0  0  0  0  0
   10.5819   -0.8879    0.0000 H   0  0  0  0  0  0  0  0  0  0  0  0
   10.9355   -0.6311    0.0000 H   0  0  0  0  0  0  0  0  0  0  0  0
   10.3756   -2.3544    0.0000 H   0  0  0  0  0  0  0  0  0  0  0  0
   12.3939   -0.8879    0.0000 H   0  0  0  0  0  0  0  0  0  0  0  0
   11.9231   -3.0680    0.0000 H   0  0  0  0  0  0  0  0  0  0  0  0
   12.5944   -2.5803    0.0000 H   0  0  0  0  0  0  0  0  0  0  0  0
   10.0189   -0.6439    0.0000 H   0  0  0  0  0  0  0  0  0  0  0  0
    9.2393   -0.8096    0.0000 H   0  0  0  0  0  0  0  0  0  0  0  0
   12.0249    0.3975    0.0000 H   0  0  0  0  0  0  0  0  0  0  0  0
    9.1136   -2.4669    0.0000 H   0  0  0  0  0  0  0  0  0  0  0  0
   10.0850    0.2775    0.0000 H   0  0  0  0  0  0  0  0  0  0  0  0
   10.6219    2.2075    0.0000 H   0  0  0  0  0  0  0  0  0  0  0  0
   10.6472   -5.3396    0.0000 H   0  0  0  0  0  0  0  0  0  0  0  0
   11.4658   -5.6539    0.0000 H   0  0  0  0  0  0  0  0  0  0  0  0
   11.7800   -4.8353    0.0000 H   0  0  0  0  0  0  0  0  0  0  0  0
    9.6412   -4.0143    0.0000 H   0  0  0  0  0  0  0  0  0  0  0  0
    9.3269   -4.8328    0.0000 H   0  0  0  0  0  0  0  0  0  0  0  0
   10.1455   -5.1471    0.0000 H   0  0  0  0  0  0  0  0  0  0  0  0
   11.9726   -4.3336    0.0000 H   0  0  0  0  0  0  0  0  0  0  0  0
   12.2868   -3.5150    0.0000 H   0  0  0  0  0  0  0  0  0  0  0  0
   11.4683   -3.2008    0.0000 H   0  0  0  0  0  0  0  0  0  0  0  0
   14.3194   -2.9903    0.0000 H   0  0  0  0  0  0  0  0  0  0  0  0
   15.1950   -2.9444    0.0000 H   0  0  0  0  0  0  0  0  0  0  0  0
   15.1492   -2.0688    0.0000 H   0  0  0  0  0  0  0  0  0  0  0  0
   15.1210   -1.5321    0.0000 H   0  0  0  0  0  0  0  0  0  0  0  0
   15.0751   -0.6565    0.0000 H   0  0  0  0  0  0  0  0  0  0  0  0
   14.1995   -0.7024    0.0000 H   0  0  0  0  0  0  0  0  0  0  0  0
   12.8613   -2.1887    0.0000 H   0  0  0  0  0  0  0  0  0  0  0  0
   12.9072   -3.0643    0.0000 H   0  0  0  0  0  0  0  0  0  0  0  0
   13.7828   -3.0184    0.0000 H   0  0  0  0  0  0  0  0  0  0  0  0
    7.9048   -0.9450    0.0000 H   0  0  0  0  0  0  0  0  0  0  0  0
   11.7000    1.5049    0.0000 H   0  0  0  0  0  0  0  0  0  0  0  0
   12.0985    2.1951    0.0000 H   0  0  0  0  0  0  0  0  0  0  0  0
    6.9994   -2.7680    0.0000 H   0  0  0  0  0  0  0  0  0  0  0  0
    7.7791   -2.6022    0.0000 H   0  0  0  0  0  0  0  0  0  0  0  0
   11.2759    3.6701    0.0000 H   0  0  0  0  0  0  0  0  0  0  0  0
   10.8774    2.9798    0.0000 H   0  0  0  0  0  0  0  0  0  0  0  0
    6.6305   -1.3641    0.0000 H   0  0  0  0  0  0  0  0  0  0  0  0
    5.8509   -1.5298    0.0000 H   0  0  0  0  0  0  0  0  0  0  0  0
   12.5660    3.0049    0.0000 H   0  0  0  0  0  0  0  0  0  0  0  0
   12.9645    3.6951    0.0000 H   0  0  0  0  0  0  0  0  0  0  0  0
   10.3759    4.0875    0.0000 H   0  0  0  0  0  0  0  0  0  0  0  0
    9.7559    4.7075    0.0000 H   0  0  0  0  0  0  0  0  0  0  0  0
    9.1359    4.0875    0.0000 H   0  0  0  0  0  0  0  0  0  0  0  0
    8.7559    3.7075    0.0000 H   0  0  0  0  0  0  0  0  0  0  0  0
    8.1359    3.0875    0.0000 H   0  0  0  0  0  0  0  0  0  0  0  0
    8.7559    2.4675    0.0000 H   0  0  0  0  0  0  0  0  0  0  0  0
   10.7559    2.4675    0.0000 H   0  0  0  0  0  0  0  0  0  0  0  0
   11.3759    3.0875    0.0000 H   0  0  0  0  0  0  0  0  0  0  0  0
   10.7559    3.7075    0.0000 H   0  0  0  0  0  0  0  0  0  0  0  0
    5.3052   -3.1281    0.0000 H   0  0  0  0  0  0  0  0  0  0  0  0
    6.0849   -2.9624    0.0000 H   0  0  0  0  0  0  0  0  0  0  0  0
   12.1419    5.1701    0.0000 H   0  0  0  0  0  0  0  0  0  0  0  0
   11.7434    4.4798    0.0000 H   0  0  0  0  0  0  0  0  0  0  0  0
   13.5300    4.5505    0.0000 H   0  0  0  0  0  0  0  0  0  0  0  0
   13.7569    5.3975    0.0000 H   0  0  0  0  0  0  0  0  0  0  0  0
   12.9100    5.6244    0.0000 H   0  0  0  0  0  0  0  0  0  0  0  0
    2.1916   -1.7331    0.0000 H   0  0  0  0  0  0  0  0  0  0  0  0
    1.4103   -2.1311    0.0000 H   0  0  0  0  0  0  0  0  0  0  0  0
    1.8084   -2.9124    0.0000 H   0  0  0  0  0  0  0  0  0  0  0  0
    2.0524   -3.3912    0.0000 H   0  0  0  0  0  0  0  0  0  0  0  0
    2.4504   -4.1725    0.0000 H   0  0  0  0  0  0  0  0  0  0  0  0
    3.2317   -3.7744    0.0000 H   0  0  0  0  0  0  0  0  0  0  0  0
    3.8497   -1.8723    0.0000 H   0  0  0  0  0  0  0  0  0  0  0  0
    3.4517   -1.0910    0.0000 H   0  0  0  0  0  0  0  0  0  0  0  0
    2.6704   -1.4891    0.0000 H   0  0  0  0  0  0  0  0  0  0  0  0
  1  5  1  0  0  0  0
  1 20  1  0  0  0  0
  1 21  1  0  0  0  0
  1 22  1  0  0  0  0
  2  6  1  0  0  0  0
  2 23  1  0  0  0  0
  2 24  1  0  0  0  0
  2 25  1  0  0  0  0
  3  7  1  0  0  0  0
  3 32  1  0  0  0  0
  3 33  1  0  0  0  0
  3 34  1  0  0  0  0
  4  8  1  0  0  0  0
  4 39  1  0  0  0  0
  4 40  1  0  0  0  0
  4 41  1  0  0  0  0
  5 12  1  0  0  0  0
  6 13  1  0  0  0  0
  7 19  1  0  0  0  0
  8 38  1  0  0  0  0
  9 38  2  0  0  0  0
 10 11  1  0  0  0  0
 10 12  1  0  0  0  0
 10 15  1  0  0  0  0
 10 42  1  0  0  0  0
 11 13  1  0  0  0  0
 11 16  1  0  0  0  0
 11 43  1  0  0  0  0
 12 14  1  0  0  0  0
 12 44  1  0  0  0  0
 13 14  1  0  0  0  0
 13 45  1  0  0  0  0
 14 46  1  0  0  0  0
 14 47  1  0  0  0  0
 15 17  1  0  0  0  0
 15 48  1  0  0  0  0
 15 49  1  0  0  0  0
 16 18  2  3  0  0  0
 16 50  1  0  0  0  0
 17 26  2  3  0  0  0
 17 51  1  0  0  0  0
 18 19  1  0  0  0  0
 18 52  1  0  0  0  0
 19 27  1  0  0  0  0
 19 53  1  0  0  0  0
 20 54  1  0  0  0  0
 20 55  1  0  0  0  0
 20 56  1  0  0  0  0
 21 57  1  0  0  0  0
 21 58  1  0  0  0  0
 21 59  1  0  0  0  0
 22 60  1  0  0  0  0
 22 61  1  0  0  0  0
 22 62  1  0  0  0  0
 23 63  1  0  0  0  0
 23 64  1  0  0  0  0
 23 65  1  0  0  0  0
 24 66  1  0  0  0  0
 24 67  1  0  0  0  0
 24 68  1  0  0  0  0
 25 69  1  0  0  0  0
 25 70  1  0  0  0  0
 25 71  1  0  0  0  0
 26 28  1  0  0  0  0
 26 72  1  0  0  0  0
 27 29  1  0  0  0  0
 27 73  1  0  0  0  0
 27 74  1  0  0  0  0
 28 30  1  0  0  0  0
 28 75  1  0  0  0  0
 28 76  1  0  0  0  0
 29 31  1  0  0  0  0
 29 77  1  0  0  0  0
 29 78  1  0  0  0  0
 30 35  1  0  0  0  0
 30 79  1  0  0  0  0
 30 80  1  0  0  0  0
 31 36  1  0  0  0  0
 31 81  1  0  0  0  0
 31 82  1  0  0  0  0
 32 83  1  0  0  0  0
 32 84  1  0  0  0  0
 32 85  1  0  0  0  0
 33 86  1  0  0  0  0
 33 87  1  0  0  0  0
 33 88  1  0  0  0  0
 34 89  1  0  0  0  0
 34 90  1  0  0  0  0
 34 91  1  0  0  0  0
 35 38  1  0  0  0  0
 35 92  1  0  0  0  0
 35 93  1  0  0  0  0
 36 37  1  0  0  0  0
 36 94  1  0  0  0  0
 36 95  1  0  0  0  0
 37 96  1  0  0  0  0
 37 97  1  0  0  0  0
 37 98  1  0  0  0  0
 39 99  1  0  0  0  0
 39100  1  0  0  0  0
 39101  1  0  0  0  0
 40102  1  0  0  0  0
 40103  1  0  0  0  0
 40104  1  0  0  0  0
 41105  1  0  0  0  0
 41106  1  0  0  0  0
 41107  1  0  0  0  0
M  END
> <PUBCHEM_COMPOUND_CID>
526146
> <PUBCHEM_COMPOUND_CANONICALIZED>
1
> <PUBCHEM_CACTVS_COMPLEXITY>
818
> <PUBCHEM_CACTVS_HBOND_ACCEPTOR>
5
> <PUBCHEM_CACTVS_HBOND_DONOR>
0
> <PUBCHEM_CACTVS_ROTATABLE_BOND>
20
> <PUBCHEM_CACTVS_SUBSKEYS>
AAADcfB8OAwAAAAAAAAAAAAAAAAAAYAAAAAAAAAAAAAAAAAAAAAAGhAAAEAADRSggAJCCAAAAAGIACDSCAAAAAAgAAAICAEAAAgABBIAAQAAEAAFwAAIAAPIwKAOgAAAAAAAAAAAAAAAAAAAAIQADAAAAA==
> <PUBCHEM_IUPAC_OPENEYE_NAME>
trimethylsilyl 7-[3,5-bis(trimethylsilyloxy)-2-(3-trimethylsilyloxyoct-1-enyl)cyclopentyl]hept-5-enoate
> <PUBCHEM_IUPAC_CAS_NAME>
7-[3,5-bis(trimethylsilyloxy)-2-(3-trimethylsilyloxyoct-1-enyl)cyclopentyl]-5-heptenoic acid trimethylsilyl ester
> <PUBCHEM_IUPAC_NAME_MARKUP>
trimethylsilyl 7-[3,5-bis(trimethylsilyloxy)-2-(3-trimethylsilyloxyoct-1-enyl)cyclopentyl]hept-5-enoate
> <PUBCHEM_IUPAC_NAME>
trimethylsilyl 7-[3,5-bis(trimethylsilyloxy)-2-(3-trimethylsilyloxyoct-1-enyl)cyclopentyl]hept-5-enoate
> <PUBCHEM_IUPAC_SYSTEMATIC_NAME>
trimethylsilyl 7-[3,5-bis(trimethylsilyloxy)-2-(3-trimethylsilyloxyoct-1-enyl)cyclopentyl]hept-5-enoate
> <PUBCHEM_IUPAC_TRADITIONAL_NAME>
7-[3,5-bis(trimethylsilyloxy)-2-(3-trimethylsilyloxyoct-1-enyl)cyclopentyl]hept-5-enoic acid trimethylsilyl ester
> <PUBCHEM_IUPAC_INCHI>
InChI=1S/C32H66O5Si4/c1-14-15-18-21-27(34-38(2,3)4)24-25-29-28(22-19-16-17-20-23-32(33)37-41(11,12)13)30(35-39(5,6)7)26-31(29)36-40(8,9)10/h16,19,24-25,27-31H,14-15,17-18,20-23,26H2,1-13H3
> <PUBCHEM_IUPAC_INCHIKEY>
ZWRMXRMPDPQJCB-UHFFFAOYSA-N
> <PUBCHEM_EXACT_MASS>
642.39873134
> <PUBCHEM_MOLECULAR_FORMULA>
C32H66O5Si4
> <PUBCHEM_MOLECULAR_WEIGHT>
643.2
> <PUBCHEM_OPENEYE_CAN_SMILES>
CCCCCC(C=CC1C(CC(C1CC=CCCCC(=O)O[Si](C)(C)C)O[Si](C)(C)C)O[Si](C)(C)C)O[Si](C)(C)C
> <PUBCHEM_OPENEYE_ISO_SMILES>
CCCCCC(C=CC1C(CC(C1CC=CCCCC(=O)O[Si](C)(C)C)O[Si](C)(C)C)O[Si](C)(C)C)O[Si](C)(C)C
> <PUBCHEM_CACTVS_TPSA>
54
> <PUBCHEM_MONOISOTOPIC_WEIGHT>
642.39873134
> <PUBCHEM_TOTAL_CHARGE>
0
> <PUBCHEM_HEAVY_ATOM_COUNT>
41
> <PUBCHEM_ATOM_DEF_STEREO_COUNT>
0
> <PUBCHEM_ATOM_UDEF_STEREO_COUNT>
5
> <PUBCHEM_BOND_DEF_STEREO_COUNT>
0
> <PUBCHEM_BOND_UDEF_STEREO_COUNT>
2
> <PUBCHEM_ISOTOPIC_ATOM_COUNT>
0
> <PUBCHEM_COMPONENT_COUNT>
1
> <PUBCHEM_CACTVS_TAUTO_COUNT>
-1
> <PUBCHEM_COORDINATE_TYPE>
1
5
255
> <PUBCHEM_BONDANNOTATIONS>
10  15  3
11  16  3
16  18  1
17  26  1
19  27  3
12  5  3
13  6  3
$$$$
