526425
  -OEChem-10302200292D
 38 37  0     1  0  0  0  0  0999 V2000
    3.7320   -0.4330    0.0000 C   0  0  0  0  0  0  0  0  0  0  0  0
    4.5981    0.0670    0.0000 C   0  0  0  0  0  0  0  0  0  0  0  0
    5.4641   -0.4330    0.0000 C   0  0  0  0  0  0  0  0  0  0  0  0
    2.8660   -0.9330    0.0000 C   0  0  0  0  0  0  0  0  0  0  0  0
    3.2320    0.4330    0.0000 C   0  0  0  0  0  0  0  0  0  0  0  0
    6.3301    0.0670    0.0000 C   0  0  3  0  0  0  0  0  0  0  0  0
    4.2320   -1.2990    0.0000 C   0  0  0  0  0  0  0  0  0  0  0  0
    7.1962   -0.4330    0.0000 C   0  0  0  0  0  0  0  0  0  0  0  0
    2.0000   -0.4330    0.0000 C   0  0  0  0  0  0  0  0  0  0  0  0
    3.7320    1.2990    0.0000 C   0  0  0  0  0  0  0  0  0  0  0  0
    6.3301    1.0670    0.0000 C   0  0  0  0  0  0  0  0  0  0  0  0
    8.0622    0.0670    0.0000 C   0  0  0  0  0  0  0  0  0  0  0  0
    4.9966    0.5419    0.0000 H   0  0  0  0  0  0  0  0  0  0  0  0
    4.1996    0.5419    0.0000 H   0  0  0  0  0  0  0  0  0  0  0  0
    5.0656   -0.9080    0.0000 H   0  0  0  0  0  0  0  0  0  0  0  0
    5.8626   -0.9080    0.0000 H   0  0  0  0  0  0  0  0  0  0  0  0
    2.4675   -1.4080    0.0000 H   0  0  0  0  0  0  0  0  0  0  0  0
    3.2646   -1.4080    0.0000 H   0  0  0  0  0  0  0  0  0  0  0  0
    2.7571    0.8315    0.0000 H   0  0  0  0  0  0  0  0  0  0  0  0
    2.7571    0.0345    0.0000 H   0  0  0  0  0  0  0  0  0  0  0  0
    6.8671    0.3770    0.0000 H   0  0  0  0  0  0  0  0  0  0  0  0
    3.6951   -1.6090    0.0000 H   0  0  0  0  0  0  0  0  0  0  0  0
    4.5420   -1.8360    0.0000 H   0  0  0  0  0  0  0  0  0  0  0  0
    4.7690   -0.9890    0.0000 H   0  0  0  0  0  0  0  0  0  0  0  0
    6.7976   -0.9080    0.0000 H   0  0  0  0  0  0  0  0  0  0  0  0
    7.5947   -0.9080    0.0000 H   0  0  0  0  0  0  0  0  0  0  0  0
    2.3100    0.1039    0.0000 H   0  0  0  0  0  0  0  0  0  0  0  0
    1.4631   -0.1230    0.0000 H   0  0  0  0  0  0  0  0  0  0  0  0
    1.6900   -0.9699    0.0000 H   0  0  0  0  0  0  0  0  0  0  0  0
    4.2690    0.9890    0.0000 H   0  0  0  0  0  0  0  0  0  0  0  0
    4.0420    1.8360    0.0000 H   0  0  0  0  0  0  0  0  0  0  0  0
    3.1951    1.6090    0.0000 H   0  0  0  0  0  0  0  0  0  0  0  0
    6.9501    1.0670    0.0000 H   0  0  0  0  0  0  0  0  0  0  0  0
    6.3301    1.6870    0.0000 H   0  0  0  0  0  0  0  0  0  0  0  0
    5.7101    1.0670    0.0000 H   0  0  0  0  0  0  0  0  0  0  0  0
    8.3722   -0.4699    0.0000 H   0  0  0  0  0  0  0  0  0  0  0  0
    8.5991    0.3770    0.0000 H   0  0  0  0  0  0  0  0  0  0  0  0
    7.7522    0.6039    0.0000 H   0  0  0  0  0  0  0  0  0  0  0  0
  1  2  1  0  0  0  0
  1  4  1  0  0  0  0
  1  5  1  0  0  0  0
  1  7  1  0  0  0  0
  2  3  1  0  0  0  0
  2 13  1  0  0  0  0
  2 14  1  0  0  0  0
  3  6  1  0  0  0  0
  3 15  1  0  0  0  0
  3 16  1  0  0  0  0
  4  9  1  0  0  0  0
  4 17  1  0  0  0  0
  4 18  1  0  0  0  0
  5 10  1  0  0  0  0
  5 19  1  0  0  0  0
  5 20  1  0  0  0  0
  6  8  1  0  0  0  0
  6 11  1  0  0  0  0
  6 21  1  0  0  0  0
  7 22  1  0  0  0  0
  7 23  1  0  0  0  0
  7 24  1  0  0  0  0
  8 12  1  0  0  0  0
  8 25  1  0  0  0  0
  8 26  1  0  0  0  0
  9 27  1  0  0  0  0
  9 28  1  0  0  0  0
  9 29  1  0  0  0  0
 10 30  1  0  0  0  0
 10 31  1  0  0  0  0
 10 32  1  0  0  0  0
 11 33  1  0  0  0  0
 11 34  1  0  0  0  0
 11 35  1  0  0  0  0
 12 36  1  0  0  0  0
 12 37  1  0  0  0  0
 12 38  1  0  0  0  0
M  END
> <PUBCHEM_COMPOUND_CID>
526425
> <PUBCHEM_COMPOUND_CANONICALIZED>
1
> <PUBCHEM_CACTVS_COMPLEXITY>
101
> <PUBCHEM_CACTVS_HBOND_ACCEPTOR>
0
> <PUBCHEM_CACTVS_HBOND_DONOR>
0
> <PUBCHEM_CACTVS_ROTATABLE_BOND>
6
> <PUBCHEM_CACTVS_SUBSKEYS>
AAADceBwAAAAAAAAAAAAAAAAAAAAAAAAAAAAAAAAAAAAAAAAAAAAGAAAAAAADwCAAAACAAAAAAAAAAAAAAAAAAAAAAAAAAAAAAAAAAIAAAAAAAAAAAAAAAEAgMAPAAAAAAAAAAAAAAAAAAAAAAAAAAAAAA==
> <PUBCHEM_IUPAC_OPENEYE_NAME>
3-ethyl-3,6-dimethyl-octane
> <PUBCHEM_IUPAC_CAS_NAME>
3-ethyl-3,6-dimethyloctane
> <PUBCHEM_IUPAC_NAME_MARKUP>
3-ethyl-3,6-dimethyloctane
> <PUBCHEM_IUPAC_NAME>
3-ethyl-3,6-dimethyloctane
> <PUBCHEM_IUPAC_SYSTEMATIC_NAME>
3-ethyl-3,6-dimethyl-octane
> <PUBCHEM_IUPAC_TRADITIONAL_NAME>
3-ethyl-3,6-dimethyl-octane
> <PUBCHEM_IUPAC_INCHI>
InChI=1S/C12H26/c1-6-11(4)9-10-12(5,7-2)8-3/h11H,6-10H2,1-5H3
> <PUBCHEM_IUPAC_INCHIKEY>
MNXPIOFJFYQCKE-UHFFFAOYSA-N
> <PUBCHEM_XLOGP3_AA>
6
> <PUBCHEM_EXACT_MASS>
170.203450829
> <PUBCHEM_MOLECULAR_FORMULA>
C12H26
> <PUBCHEM_MOLECULAR_WEIGHT>
170.33
> <PUBCHEM_OPENEYE_CAN_SMILES>
CCC(C)CCC(C)(CC)CC
> <PUBCHEM_OPENEYE_ISO_SMILES>
CCC(C)CCC(C)(CC)CC
> <PUBCHEM_CACTVS_TPSA>
0
> <PUBCHEM_MONOISOTOPIC_WEIGHT>
170.203450829
> <PUBCHEM_TOTAL_CHARGE>
0
> <PUBCHEM_HEAVY_ATOM_COUNT>
12
> <PUBCHEM_ATOM_DEF_STEREO_COUNT>
0
> <PUBCHEM_ATOM_UDEF_STEREO_COUNT>
1
> <PUBCHEM_BOND_DEF_STEREO_COUNT>
0
> <PUBCHEM_BOND_UDEF_STEREO_COUNT>
0
> <PUBCHEM_ISOTOPIC_ATOM_COUNT>
0
> <PUBCHEM_COMPONENT_COUNT>
1
> <PUBCHEM_CACTVS_TAUTO_COUNT>
1
> <PUBCHEM_COORDINATE_TYPE>
1
5
255
> <PUBCHEM_BONDANNOTATIONS>
6  11  3
$$$$
