526479
  -OEChem-10302200292D
 74 75  0     1  0  0  0  0  0999 V2000
    4.2320    3.9330    0.0000 Si  0  0  0  0  0  0  0  0  0  0  0  0
    8.6962    3.9330    0.0000 F   0  0  0  0  0  0  0  0  0  0  0  0
    6.6962    3.9330    0.0000 F   0  0  0  0  0  0  0  0  0  0  0  0
    8.6962    4.9330    0.0000 F   0  0  0  0  0  0  0  0  0  0  0  0
    6.6962    4.9330    0.0000 F   0  0  0  0  0  0  0  0  0  0  0  0
    7.6962    6.9330    0.0000 F   0  0  0  0  0  0  0  0  0  0  0  0
    8.6962    5.9330    0.0000 F   0  0  0  0  0  0  0  0  0  0  0  0
    6.6962    5.9330    0.0000 F   0  0  0  0  0  0  0  0  0  0  0  0
    3.3660   -4.5670    0.0000 O   0  0  0  0  0  0  0  0  0  0  0  0
    4.2320    2.9330    0.0000 O   0  0  0  0  0  0  0  0  0  0  0  0
    4.2320    0.9330    0.0000 O   0  0  0  0  0  0  0  0  0  0  0  0
    8.5622    2.4330    0.0000 O   0  0  0  0  0  0  0  0  0  0  0  0
    6.8301    2.4330    0.0000 N   0  0  0  0  0  0  0  0  0  0  0  0
    2.5000   -6.0670    0.0000 C   0  0  0  0  0  0  0  0  0  0  0  0
    2.0000   -6.9330    0.0000 C   0  0  0  0  0  0  0  0  0  0  0  0
    3.0000   -6.9330    0.0000 C   0  0  0  0  0  0  0  0  0  0  0  0
    2.5000   -5.0670    0.0000 C   0  0  0  0  0  0  0  0  0  0  0  0
    3.3660   -3.5670    0.0000 C   0  0  0  0  0  0  0  0  0  0  0  0
    5.0981    2.4330    0.0000 C   0  0  3  0  0  0  0  0  0  0  0  0
    5.9641    2.9330    0.0000 C   0  0  0  0  0  0  0  0  0  0  0  0
    4.2320   -3.0670    0.0000 C   0  0  0  0  0  0  0  0  0  0  0  0
    6.8301    1.4330    0.0000 C   0  0  0  0  0  0  0  0  0  0  0  0
    5.0981    1.4330    0.0000 C   0  0  0  0  0  0  0  0  0  0  0  0
    4.2320   -2.0670    0.0000 C   0  0  0  0  0  0  0  0  0  0  0  0
    7.6962    2.9330    0.0000 C   0  0  0  0  0  0  0  0  0  0  0  0
    3.2320    3.9330    0.0000 C   0  0  0  0  0  0  0  0  0  0  0  0
    4.2320    4.9330    0.0000 C   0  0  0  0  0  0  0  0  0  0  0  0
    5.2320    3.9330    0.0000 C   0  0  0  0  0  0  0  0  0  0  0  0
    7.6962    0.9330    0.0000 C   0  0  0  0  0  0  0  0  0  0  0  0
    5.9641    0.9330    0.0000 C   0  0  0  0  0  0  0  0  0  0  0  0
    7.6962    3.9330    0.0000 C   0  0  0  0  0  0  0  0  0  0  0  0
    3.3660   -1.5670    0.0000 C   0  0  0  0  0  0  0  0  0  0  0  0
    5.0981   -1.5670    0.0000 C   0  0  0  0  0  0  0  0  0  0  0  0
    4.2320   -0.0670    0.0000 C   0  0  0  0  0  0  0  0  0  0  0  0
    7.6962    4.9330    0.0000 C   0  0  0  0  0  0  0  0  0  0  0  0
    3.3660   -0.5670    0.0000 C   0  0  0  0  0  0  0  0  0  0  0  0
    5.0981   -0.5670    0.0000 C   0  0  0  0  0  0  0  0  0  0  0  0
    7.6962    5.9330    0.0000 C   0  0  0  0  0  0  0  0  0  0  0  0
    3.0989   -5.9065    0.0000 H   0  0  0  0  0  0  0  0  0  0  0  0
    1.4174   -6.7210    0.0000 H   0  0  0  0  0  0  0  0  0  0  0  0
    1.8923   -7.5436    0.0000 H   0  0  0  0  0  0  0  0  0  0  0  0
    3.1077   -7.5436    0.0000 H   0  0  0  0  0  0  0  0  0  0  0  0
    3.5826   -6.7210    0.0000 H   0  0  0  0  0  0  0  0  0  0  0  0
    2.2880   -4.4844    0.0000 H   0  0  0  0  0  0  0  0  0  0  0  0
    1.8894   -5.1746    0.0000 H   0  0  0  0  0  0  0  0  0  0  0  0
    3.1540   -2.9844    0.0000 H   0  0  0  0  0  0  0  0  0  0  0  0
    2.7554   -3.6746    0.0000 H   0  0  0  0  0  0  0  0  0  0  0  0
    5.0981    3.0530    0.0000 H   0  0  0  0  0  0  0  0  0  0  0  0
    6.3626    3.4080    0.0000 H   0  0  0  0  0  0  0  0  0  0  0  0
    5.5656    3.4080    0.0000 H   0  0  0  0  0  0  0  0  0  0  0  0
    4.4441   -3.6496    0.0000 H   0  0  0  0  0  0  0  0  0  0  0  0
    4.8426   -2.9593    0.0000 H   0  0  0  0  0  0  0  0  0  0  0  0
    7.3671    1.7430    0.0000 H   0  0  0  0  0  0  0  0  0  0  0  0
    5.3101    0.8504    0.0000 H   0  0  0  0  0  0  0  0  0  0  0  0
    5.7087    1.5407    0.0000 H   0  0  0  0  0  0  0  0  0  0  0  0
    3.2320    4.5530    0.0000 H   0  0  0  0  0  0  0  0  0  0  0  0
    2.6120    3.9330    0.0000 H   0  0  0  0  0  0  0  0  0  0  0  0
    3.2320    3.3130    0.0000 H   0  0  0  0  0  0  0  0  0  0  0  0
    4.8520    4.9330    0.0000 H   0  0  0  0  0  0  0  0  0  0  0  0
    4.2320    5.5530    0.0000 H   0  0  0  0  0  0  0  0  0  0  0  0
    3.6120    4.9330    0.0000 H   0  0  0  0  0  0  0  0  0  0  0  0
    5.2320    3.3130    0.0000 H   0  0  0  0  0  0  0  0  0  0  0  0
    5.8520    3.9330    0.0000 H   0  0  0  0  0  0  0  0  0  0  0  0
    5.2320    4.5530    0.0000 H   0  0  0  0  0  0  0  0  0  0  0  0
    7.3862    0.3961    0.0000 H   0  0  0  0  0  0  0  0  0  0  0  0
    8.2331    0.6230    0.0000 H   0  0  0  0  0  0  0  0  0  0  0  0
    8.0062    1.4700    0.0000 H   0  0  0  0  0  0  0  0  0  0  0  0
    5.6541    1.4700    0.0000 H   0  0  0  0  0  0  0  0  0  0  0  0
    5.4272    0.6230    0.0000 H   0  0  0  0  0  0  0  0  0  0  0  0
    6.2741    0.3961    0.0000 H   0  0  0  0  0  0  0  0  0  0  0  0
    2.8291   -1.8770    0.0000 H   0  0  0  0  0  0  0  0  0  0  0  0
    5.6350   -1.8770    0.0000 H   0  0  0  0  0  0  0  0  0  0  0  0
    2.8291   -0.2570    0.0000 H   0  0  0  0  0  0  0  0  0  0  0  0
    5.6350   -0.2570    0.0000 H   0  0  0  0  0  0  0  0  0  0  0  0
  1 10  1  0  0  0  0
  1 26  1  0  0  0  0
  1 27  1  0  0  0  0
  1 28  1  0  0  0  0
  2 31  1  0  0  0  0
  3 31  1  0  0  0  0
  4 35  1  0  0  0  0
  5 35  1  0  0  0  0
  6 38  1  0  0  0  0
  7 38  1  0  0  0  0
  8 38  1  0  0  0  0
  9 17  1  0  0  0  0
  9 18  1  0  0  0  0
 10 19  1  0  0  0  0
 11 23  1  0  0  0  0
 11 34  1  0  0  0  0
 12 25  2  0  0  0  0
 13 20  1  0  0  0  0
 13 22  1  0  0  0  0
 13 25  1  0  0  0  0
 14 15  1  0  0  0  0
 14 16  1  0  0  0  0
 14 17  1  0  0  0  0
 14 39  1  0  0  0  0
 15 16  1  0  0  0  0
 15 40  1  0  0  0  0
 15 41  1  0  0  0  0
 16 42  1  0  0  0  0
 16 43  1  0  0  0  0
 17 44  1  0  0  0  0
 17 45  1  0  0  0  0
 18 21  1  0  0  0  0
 18 46  1  0  0  0  0
 18 47  1  0  0  0  0
 19 20  1  0  0  0  0
 19 23  1  0  0  0  0
 19 48  1  0  0  0  0
 20 49  1  0  0  0  0
 20 50  1  0  0  0  0
 21 24  1  0  0  0  0
 21 51  1  0  0  0  0
 21 52  1  0  0  0  0
 22 29  1  0  0  0  0
 22 30  1  0  0  0  0
 22 53  1  0  0  0  0
 23 54  1  0  0  0  0
 23 55  1  0  0  0  0
 24 32  2  0  0  0  0
 24 33  1  0  0  0  0
 25 31  1  0  0  0  0
 26 56  1  0  0  0  0
 26 57  1  0  0  0  0
 26 58  1  0  0  0  0
 27 59  1  0  0  0  0
 27 60  1  0  0  0  0
 27 61  1  0  0  0  0
 28 62  1  0  0  0  0
 28 63  1  0  0  0  0
 28 64  1  0  0  0  0
 29 65  1  0  0  0  0
 29 66  1  0  0  0  0
 29 67  1  0  0  0  0
 30 68  1  0  0  0  0
 30 69  1  0  0  0  0
 30 70  1  0  0  0  0
 31 35  1  0  0  0  0
 32 36  1  0  0  0  0
 32 71  1  0  0  0  0
 33 37  2  0  0  0  0
 33 72  1  0  0  0  0
 34 36  2  0  0  0  0
 34 37  1  0  0  0  0
 35 38  1  0  0  0  0
 36 73  1  0  0  0  0
 37 74  1  0  0  0  0
M  END
> <PUBCHEM_COMPOUND_CID>
526479
> <PUBCHEM_COMPOUND_CANONICALIZED>
1
> <PUBCHEM_CACTVS_COMPLEXITY>
749
> <PUBCHEM_CACTVS_HBOND_ACCEPTOR>
11
> <PUBCHEM_CACTVS_HBOND_DONOR>
0
> <PUBCHEM_CACTVS_ROTATABLE_BOND>
15
> <PUBCHEM_CACTVS_SUBSKEYS>
AAADcfB6OcgAAAAAAAAAAAAAGAAAAAAAAAAwAAAAAAAAAAABAAAAHxAAAEAADTzhmBZyBoMABAGIAiFSEAACCAAgIAAIiAEOCIgPJjKEsRqGOCCmxhGaqAeAwKAOIAAAAAAAAABAAAAAAAAAAAAAAAAAAA==
> <PUBCHEM_IUPAC_OPENEYE_NAME>
N-[3-[4-[2-(cyclopropylmethoxy)ethyl]phenoxy]-2-trimethylsilyloxy-propyl]-2,2,3,3,4,4,4-heptafluoro-N-isopropyl-butanamide
> <PUBCHEM_IUPAC_CAS_NAME>
N-[3-[4-[2-(cyclopropylmethoxy)ethyl]phenoxy]-2-trimethylsilyloxypropyl]-2,2,3,3,4,4,4-heptafluoro-N-propan-2-ylbutanamide
> <PUBCHEM_IUPAC_NAME_MARKUP>
<I>N</I>-[3-[4-[2-(cyclopropylmethoxy)ethyl]phenoxy]-2-trimethylsilyloxypropyl]-2,2,3,3,4,4,4-heptafluoro-<I>N</I>-propan-2-ylbutanamide
> <PUBCHEM_IUPAC_NAME>
N-[3-[4-[2-(cyclopropylmethoxy)ethyl]phenoxy]-2-trimethylsilyloxypropyl]-2,2,3,3,4,4,4-heptafluoro-N-propan-2-ylbutanamide
> <PUBCHEM_IUPAC_SYSTEMATIC_NAME>
N-[3-[4-[2-(cyclopropylmethoxy)ethyl]phenoxy]-2-trimethylsilyloxy-propyl]-2,2,3,3,4,4,4-heptakis(fluoranyl)-N-propan-2-yl-butanamide
> <PUBCHEM_IUPAC_TRADITIONAL_NAME>
N-[3-[4-[2-(cyclopropylmethoxy)ethyl]phenoxy]-2-trimethylsilyloxy-propyl]-2,2,3,3,4,4,4-heptafluoro-N-isopropyl-butyramide
> <PUBCHEM_IUPAC_INCHI>
InChI=1S/C25H36F7NO4Si/c1-17(2)33(22(34)23(26,27)24(28,29)25(30,31)32)14-21(37-38(3,4)5)16-36-20-10-8-18(9-11-20)12-13-35-15-19-6-7-19/h8-11,17,19,21H,6-7,12-16H2,1-5H3
> <PUBCHEM_IUPAC_INCHIKEY>
JNMGZRIOMSYDBG-UHFFFAOYSA-N
> <PUBCHEM_EXACT_MASS>
575.23018230
> <PUBCHEM_MOLECULAR_FORMULA>
C25H36F7NO4Si
> <PUBCHEM_MOLECULAR_WEIGHT>
575.6
> <PUBCHEM_OPENEYE_CAN_SMILES>
CC(C)N(CC(COC1=CC=C(C=C1)CCOCC2CC2)O[Si](C)(C)C)C(=O)C(C(C(F)(F)F)(F)F)(F)F
> <PUBCHEM_OPENEYE_ISO_SMILES>
CC(C)N(CC(COC1=CC=C(C=C1)CCOCC2CC2)O[Si](C)(C)C)C(=O)C(C(C(F)(F)F)(F)F)(F)F
> <PUBCHEM_CACTVS_TPSA>
48
> <PUBCHEM_MONOISOTOPIC_WEIGHT>
575.23018230
> <PUBCHEM_TOTAL_CHARGE>
0
> <PUBCHEM_HEAVY_ATOM_COUNT>
38
> <PUBCHEM_ATOM_DEF_STEREO_COUNT>
0
> <PUBCHEM_ATOM_UDEF_STEREO_COUNT>
1
> <PUBCHEM_BOND_DEF_STEREO_COUNT>
0
> <PUBCHEM_BOND_UDEF_STEREO_COUNT>
0
> <PUBCHEM_ISOTOPIC_ATOM_COUNT>
0
> <PUBCHEM_COMPONENT_COUNT>
1
> <PUBCHEM_CACTVS_TAUTO_COUNT>
-1
> <PUBCHEM_COORDINATE_TYPE>
1
5
255
> <PUBCHEM_BONDANNOTATIONS>
19  20  3
24  32  8
24  33  8
32  36  8
33  37  8
34  36  8
34  37  8
$$$$
