526431
  -OEChem-10302200292D
 38 37  0     1  0  0  0  0  0999 V2000
    5.4641    0.0000    0.0000 C   0  0  3  0  0  0  0  0  0  0  0  0
    4.5981    0.5000    0.0000 C   0  0  0  0  0  0  0  0  0  0  0  0
    3.7320   -0.0000    0.0000 C   0  0  0  0  0  0  0  0  0  0  0  0
    6.3301    0.5000    0.0000 C   0  0  3  0  0  0  0  0  0  0  0  0
    2.8660    0.5000    0.0000 C   0  0  0  0  0  0  0  0  0  0  0  0
    3.7320   -1.0000    0.0000 C   0  0  0  0  0  0  0  0  0  0  0  0
    7.1962    0.0000    0.0000 C   0  0  0  0  0  0  0  0  0  0  0  0
    5.4641   -1.0000    0.0000 C   0  0  0  0  0  0  0  0  0  0  0  0
    6.3301    1.5000    0.0000 C   0  0  0  0  0  0  0  0  0  0  0  0
    2.0000   -0.0000    0.0000 C   0  0  0  0  0  0  0  0  0  0  0  0
    2.8660   -1.5000    0.0000 C   0  0  0  0  0  0  0  0  0  0  0  0
    8.0622    0.5000    0.0000 C   0  0  0  0  0  0  0  0  0  0  0  0
    6.0010   -0.3100    0.0000 H   0  0  0  0  0  0  0  0  0  0  0  0
    4.9966    0.9749    0.0000 H   0  0  0  0  0  0  0  0  0  0  0  0
    4.1996    0.9749    0.0000 H   0  0  0  0  0  0  0  0  0  0  0  0
    3.7320    0.6200    0.0000 H   0  0  0  0  0  0  0  0  0  0  0  0
    6.8671    0.8100    0.0000 H   0  0  0  0  0  0  0  0  0  0  0  0
    3.2646    0.9749    0.0000 H   0  0  0  0  0  0  0  0  0  0  0  0
    2.4675    0.9749    0.0000 H   0  0  0  0  0  0  0  0  0  0  0  0
    3.9441   -1.5826    0.0000 H   0  0  0  0  0  0  0  0  0  0  0  0
    4.3426   -0.8923    0.0000 H   0  0  0  0  0  0  0  0  0  0  0  0
    6.7976   -0.4749    0.0000 H   0  0  0  0  0  0  0  0  0  0  0  0
    7.5947   -0.4749    0.0000 H   0  0  0  0  0  0  0  0  0  0  0  0
    4.8441   -1.0000    0.0000 H   0  0  0  0  0  0  0  0  0  0  0  0
    5.4641   -1.6200    0.0000 H   0  0  0  0  0  0  0  0  0  0  0  0
    6.0841   -1.0000    0.0000 H   0  0  0  0  0  0  0  0  0  0  0  0
    6.9501    1.5000    0.0000 H   0  0  0  0  0  0  0  0  0  0  0  0
    6.3301    2.1200    0.0000 H   0  0  0  0  0  0  0  0  0  0  0  0
    5.7101    1.5000    0.0000 H   0  0  0  0  0  0  0  0  0  0  0  0
    1.6900    0.5369    0.0000 H   0  0  0  0  0  0  0  0  0  0  0  0
    1.4631   -0.3100    0.0000 H   0  0  0  0  0  0  0  0  0  0  0  0
    2.3100   -0.5369    0.0000 H   0  0  0  0  0  0  0  0  0  0  0  0
    2.5560   -0.9631    0.0000 H   0  0  0  0  0  0  0  0  0  0  0  0
    2.3291   -1.8100    0.0000 H   0  0  0  0  0  0  0  0  0  0  0  0
    3.1760   -2.0369    0.0000 H   0  0  0  0  0  0  0  0  0  0  0  0
    8.3722   -0.0369    0.0000 H   0  0  0  0  0  0  0  0  0  0  0  0
    8.5991    0.8100    0.0000 H   0  0  0  0  0  0  0  0  0  0  0  0
    7.7522    1.0369    0.0000 H   0  0  0  0  0  0  0  0  0  0  0  0
  1  2  1  0  0  0  0
  1  4  1  0  0  0  0
  1  8  1  0  0  0  0
  1 13  1  0  0  0  0
  2  3  1  0  0  0  0
  2 14  1  0  0  0  0
  2 15  1  0  0  0  0
  3  5  1  0  0  0  0
  3  6  1  0  0  0  0
  3 16  1  0  0  0  0
  4  7  1  0  0  0  0
  4  9  1  0  0  0  0
  4 17  1  0  0  0  0
  5 10  1  0  0  0  0
  5 18  1  0  0  0  0
  5 19  1  0  0  0  0
  6 11  1  0  0  0  0
  6 20  1  0  0  0  0
  6 21  1  0  0  0  0
  7 12  1  0  0  0  0
  7 22  1  0  0  0  0
  7 23  1  0  0  0  0
  8 24  1  0  0  0  0
  8 25  1  0  0  0  0
  8 26  1  0  0  0  0
  9 27  1  0  0  0  0
  9 28  1  0  0  0  0
  9 29  1  0  0  0  0
 10 30  1  0  0  0  0
 10 31  1  0  0  0  0
 10 32  1  0  0  0  0
 11 33  1  0  0  0  0
 11 34  1  0  0  0  0
 11 35  1  0  0  0  0
 12 36  1  0  0  0  0
 12 37  1  0  0  0  0
 12 38  1  0  0  0  0
M  END
> <PUBCHEM_COMPOUND_CID>
526431
> <PUBCHEM_COMPOUND_CANONICALIZED>
1
> <PUBCHEM_CACTVS_COMPLEXITY>
92.2
> <PUBCHEM_CACTVS_HBOND_ACCEPTOR>
0
> <PUBCHEM_CACTVS_HBOND_DONOR>
0
> <PUBCHEM_CACTVS_ROTATABLE_BOND>
6
> <PUBCHEM_CACTVS_SUBSKEYS>
AAADceBwAAAAAAAAAAAAAAAAAAAAAAAAAAAAAAAAAAAAAAAAAAAAGAAAAAAADQCAAAACAAAAAAAAAAAAAAAAAAAAAAAAAAAAAAAAAAIAAAAAAAAAAAAAAAEAgMAOgAAAAAAAAAAAAAAAAAAAAAAAAAAAAA==
> <PUBCHEM_IUPAC_OPENEYE_NAME>
6-ethyl-3,4-dimethyl-octane
> <PUBCHEM_IUPAC_CAS_NAME>
6-ethyl-3,4-dimethyloctane
> <PUBCHEM_IUPAC_NAME_MARKUP>
6-ethyl-3,4-dimethyloctane
> <PUBCHEM_IUPAC_NAME>
6-ethyl-3,4-dimethyloctane
> <PUBCHEM_IUPAC_SYSTEMATIC_NAME>
6-ethyl-3,4-dimethyl-octane
> <PUBCHEM_IUPAC_TRADITIONAL_NAME>
6-ethyl-3,4-dimethyl-octane
> <PUBCHEM_IUPAC_INCHI>
InChI=1S/C12H26/c1-6-10(4)11(5)9-12(7-2)8-3/h10-12H,6-9H2,1-5H3
> <PUBCHEM_IUPAC_INCHIKEY>
DPDGQUDZYGOBAM-UHFFFAOYSA-N
> <PUBCHEM_XLOGP3_AA>
5.8
> <PUBCHEM_EXACT_MASS>
170.203450829
> <PUBCHEM_MOLECULAR_FORMULA>
C12H26
> <PUBCHEM_MOLECULAR_WEIGHT>
170.33
> <PUBCHEM_OPENEYE_CAN_SMILES>
CCC(C)C(C)CC(CC)CC
> <PUBCHEM_OPENEYE_ISO_SMILES>
CCC(C)C(C)CC(CC)CC
> <PUBCHEM_CACTVS_TPSA>
0
> <PUBCHEM_MONOISOTOPIC_WEIGHT>
170.203450829
> <PUBCHEM_TOTAL_CHARGE>
0
> <PUBCHEM_HEAVY_ATOM_COUNT>
12
> <PUBCHEM_ATOM_DEF_STEREO_COUNT>
0
> <PUBCHEM_ATOM_UDEF_STEREO_COUNT>
2
> <PUBCHEM_BOND_DEF_STEREO_COUNT>
0
> <PUBCHEM_BOND_UDEF_STEREO_COUNT>
0
> <PUBCHEM_ISOTOPIC_ATOM_COUNT>
0
> <PUBCHEM_COMPONENT_COUNT>
1
> <PUBCHEM_CACTVS_TAUTO_COUNT>
1
> <PUBCHEM_COORDINATE_TYPE>
1
5
255
> <PUBCHEM_BONDANNOTATIONS>
1  8  3
4  9  3
$$$$
