526483
  -OEChem-10302200292D
 68 69  0     1  0  0  0  0  0999 V2000
    2.3660   -1.0721    0.0000 S   0  0  0  0  0  0  0  0  0  0  0  0
    7.4793    1.1150    0.0000 Si  0  0  0  0  0  0  0  0  0  0  0  0
    8.8588   -3.1306    0.0000 F   0  0  0  0  0  0  0  0  0  0  0  0
    8.2407   -1.2285    0.0000 F   0  0  0  0  0  0  0  0  0  0  0  0
    9.8098   -2.8216    0.0000 F   0  0  0  0  0  0  0  0  0  0  0  0
    9.1918   -0.9195    0.0000 F   0  0  0  0  0  0  0  0  0  0  0  0
   11.4029   -1.2525    0.0000 F   0  0  0  0  0  0  0  0  0  0  0  0
   10.7609   -2.5126    0.0000 F   0  0  0  0  0  0  0  0  0  0  0  0
   10.1428   -0.6105    0.0000 F   0  0  0  0  0  0  0  0  0  0  0  0
    6.5282    0.8060    0.0000 O   0  0  0  0  0  0  0  0  0  0  0  0
    4.6261    0.1880    0.0000 O   0  0  0  0  0  0  0  0  0  0  0  0
    7.3908   -3.4667    0.0000 O   0  0  0  0  0  0  0  0  0  0  0  0
    2.8660    3.4667    0.0000 O   0  0  0  0  0  0  0  0  0  0  0  0
    6.8555   -1.8194    0.0000 N   0  0  0  0  0  0  0  0  0  0  0  0
    2.8660    1.4667    0.0000 N   0  0  0  0  0  0  0  0  0  0  0  0
    3.3660   -1.0721    0.0000 N   0  0  0  0  0  0  0  0  0  0  0  0
    2.0570   -0.1211    0.0000 N   0  0  0  0  0  0  0  0  0  0  0  0
    5.9045   -2.1285    0.0000 C   0  0  0  0  0  0  0  0  0  0  0  0
    7.0634   -0.8413    0.0000 C   0  0  0  0  0  0  0  0  0  0  0  0
    6.3203   -0.1722    0.0000 C   0  0  3  0  0  0  0  0  0  0  0  0
    6.2135   -3.0795    0.0000 C   0  0  0  0  0  0  0  0  0  0  0  0
    5.5955   -1.1774    0.0000 C   0  0  0  0  0  0  0  0  0  0  0  0
    4.9534   -2.4375    0.0000 C   0  0  0  0  0  0  0  0  0  0  0  0
    5.3692   -0.4812    0.0000 C   0  0  0  0  0  0  0  0  0  0  0  0
    7.5987   -2.4886    0.0000 C   0  0  0  0  0  0  0  0  0  0  0  0
    8.5497   -2.1796    0.0000 C   0  0  0  0  0  0  0  0  0  0  0  0
    7.1702    2.0661    0.0000 C   0  0  0  0  0  0  0  0  0  0  0  0
    8.4303    1.4240    0.0000 C   0  0  0  0  0  0  0  0  0  0  0  0
    7.7883    0.1639    0.0000 C   0  0  0  0  0  0  0  0  0  0  0  0
    9.5008   -1.8705    0.0000 C   0  0  0  0  0  0  0  0  0  0  0  0
    3.7320    1.9667    0.0000 C   0  0  0  0  0  0  0  0  0  0  0  0
    2.0000    1.9667    0.0000 C   0  0  0  0  0  0  0  0  0  0  0  0
    3.6750   -0.1211    0.0000 C   0  0  0  0  0  0  0  0  0  0  0  0
    2.8660    0.4667    0.0000 C   0  0  0  0  0  0  0  0  0  0  0  0
    3.7320    2.9667    0.0000 C   0  0  0  0  0  0  0  0  0  0  0  0
    2.0000    2.9667    0.0000 C   0  0  0  0  0  0  0  0  0  0  0  0
   10.4518   -1.5615    0.0000 C   0  0  0  0  0  0  0  0  0  0  0  0
    7.6383   -1.0736    0.0000 H   0  0  0  0  0  0  0  0  0  0  0  0
    7.3920   -0.3155    0.0000 H   0  0  0  0  0  0  0  0  0  0  0  0
    5.8595    0.2427    0.0000 H   0  0  0  0  0  0  0  0  0  0  0  0
    5.6238   -3.2711    0.0000 H   0  0  0  0  0  0  0  0  0  0  0  0
    6.4051   -3.6692    0.0000 H   0  0  0  0  0  0  0  0  0  0  0  0
    6.8032   -2.8879    0.0000 H   0  0  0  0  0  0  0  0  0  0  0  0
    6.1851   -0.9858    0.0000 H   0  0  0  0  0  0  0  0  0  0  0  0
    5.4039   -0.5877    0.0000 H   0  0  0  0  0  0  0  0  0  0  0  0
    5.0058   -1.3690    0.0000 H   0  0  0  0  0  0  0  0  0  0  0  0
    4.7618   -1.8478    0.0000 H   0  0  0  0  0  0  0  0  0  0  0  0
    4.3638   -2.6291    0.0000 H   0  0  0  0  0  0  0  0  0  0  0  0
    5.1450   -3.0271    0.0000 H   0  0  0  0  0  0  0  0  0  0  0  0
    4.8807   -0.8629    0.0000 H   0  0  0  0  0  0  0  0  0  0  0  0
    5.6603   -1.0286    0.0000 H   0  0  0  0  0  0  0  0  0  0  0  0
    7.7599    2.2576    0.0000 H   0  0  0  0  0  0  0  0  0  0  0  0
    6.9787    2.6557    0.0000 H   0  0  0  0  0  0  0  0  0  0  0  0
    6.5806    1.8745    0.0000 H   0  0  0  0  0  0  0  0  0  0  0  0
    8.6219    0.8344    0.0000 H   0  0  0  0  0  0  0  0  0  0  0  0
    9.0200    1.6156    0.0000 H   0  0  0  0  0  0  0  0  0  0  0  0
    8.2387    2.0137    0.0000 H   0  0  0  0  0  0  0  0  0  0  0  0
    7.1986   -0.0276    0.0000 H   0  0  0  0  0  0  0  0  0  0  0  0
    7.9799   -0.4257    0.0000 H   0  0  0  0  0  0  0  0  0  0  0  0
    8.3779    0.3555    0.0000 H   0  0  0  0  0  0  0  0  0  0  0  0
    3.9441    1.3841    0.0000 H   0  0  0  0  0  0  0  0  0  0  0  0
    4.3426    2.0744    0.0000 H   0  0  0  0  0  0  0  0  0  0  0  0
    1.3894    2.0744    0.0000 H   0  0  0  0  0  0  0  0  0  0  0  0
    1.7880    1.3841    0.0000 H   0  0  0  0  0  0  0  0  0  0  0  0
    4.3426    2.8591    0.0000 H   0  0  0  0  0  0  0  0  0  0  0  0
    3.9441    3.5493    0.0000 H   0  0  0  0  0  0  0  0  0  0  0  0
    1.7880    3.5493    0.0000 H   0  0  0  0  0  0  0  0  0  0  0  0
    1.3894    2.8591    0.0000 H   0  0  0  0  0  0  0  0  0  0  0  0
  1 16  1  0  0  0  0
  1 17  1  0  0  0  0
  2 10  1  0  0  0  0
  2 27  1  0  0  0  0
  2 28  1  0  0  0  0
  2 29  1  0  0  0  0
  3 26  1  0  0  0  0
  4 26  1  0  0  0  0
  5 30  1  0  0  0  0
  6 30  1  0  0  0  0
  7 37  1  0  0  0  0
  8 37  1  0  0  0  0
  9 37  1  0  0  0  0
 10 20  1  0  0  0  0
 11 24  1  0  0  0  0
 11 33  1  0  0  0  0
 12 25  2  0  0  0  0
 13 35  1  0  0  0  0
 13 36  1  0  0  0  0
 14 18  1  0  0  0  0
 14 19  1  0  0  0  0
 14 25  1  0  0  0  0
 15 31  1  0  0  0  0
 15 32  1  0  0  0  0
 15 34  1  0  0  0  0
 16 33  2  0  0  0  0
 17 34  2  0  0  0  0
 18 21  1  0  0  0  0
 18 22  1  0  0  0  0
 18 23  1  0  0  0  0
 19 20  1  0  0  0  0
 19 38  1  0  0  0  0
 19 39  1  0  0  0  0
 20 24  1  0  0  0  0
 20 40  1  0  0  0  0
 21 41  1  0  0  0  0
 21 42  1  0  0  0  0
 21 43  1  0  0  0  0
 22 44  1  0  0  0  0
 22 45  1  0  0  0  0
 22 46  1  0  0  0  0
 23 47  1  0  0  0  0
 23 48  1  0  0  0  0
 23 49  1  0  0  0  0
 24 50  1  0  0  0  0
 24 51  1  0  0  0  0
 25 26  1  0  0  0  0
 26 30  1  0  0  0  0
 27 52  1  0  0  0  0
 27 53  1  0  0  0  0
 27 54  1  0  0  0  0
 28 55  1  0  0  0  0
 28 56  1  0  0  0  0
 28 57  1  0  0  0  0
 29 58  1  0  0  0  0
 29 59  1  0  0  0  0
 29 60  1  0  0  0  0
 30 37  1  0  0  0  0
 31 35  1  0  0  0  0
 31 61  1  0  0  0  0
 31 62  1  0  0  0  0
 32 36  1  0  0  0  0
 32 63  1  0  0  0  0
 32 64  1  0  0  0  0
 33 34  1  0  0  0  0
 35 65  1  0  0  0  0
 35 66  1  0  0  0  0
 36 67  1  0  0  0  0
 36 68  1  0  0  0  0
M  END
> <PUBCHEM_COMPOUND_CID>
526483
> <PUBCHEM_COMPOUND_CANONICALIZED>
1
> <PUBCHEM_CACTVS_COMPLEXITY>
777
> <PUBCHEM_CACTVS_HBOND_ACCEPTOR>
15
> <PUBCHEM_CACTVS_HBOND_DONOR>
0
> <PUBCHEM_CACTVS_ROTATABLE_BOND>
11
> <PUBCHEM_CACTVS_SUBSKEYS>
AAADceB7uchAAAAAAAAAAAAAAAAAAWAAAAAsAAAAAAAAAAABgAAAHxAAQEAADJzhghZDtBMABAGoAAMwcAQACAQBUAABAAEJEACHQBAAiAAfCACCBgKSAAAAAAAAAAAAAAAAAAAAAAAAAAAAAAAAAAAAAA==
> <PUBCHEM_IUPAC_OPENEYE_NAME>
N-tert-butyl-2,2,3,3,4,4,4-heptafluoro-N-[3-[(4-morpholino-1,2,5-thiadiazol-3-yl)oxy]-2-trimethylsilyloxy-propyl]butanamide
> <PUBCHEM_IUPAC_CAS_NAME>
N-tert-butyl-2,2,3,3,4,4,4-heptafluoro-N-[3-[[4-(4-morpholinyl)-1,2,5-thiadiazol-3-yl]oxy]-2-trimethylsilyloxypropyl]butanamide
> <PUBCHEM_IUPAC_NAME_MARKUP>
<I>N</I>-<I>tert</I>-butyl-2,2,3,3,4,4,4-heptafluoro-<I>N</I>-[3-[(4-morpholin-4-yl-1,2,5-thiadiazol-3-yl)oxy]-2-trimethylsilyloxypropyl]butanamide
> <PUBCHEM_IUPAC_NAME>
N-tert-butyl-2,2,3,3,4,4,4-heptafluoro-N-[3-[(4-morpholin-4-yl-1,2,5-thiadiazol-3-yl)oxy]-2-trimethylsilyloxypropyl]butanamide
> <PUBCHEM_IUPAC_SYSTEMATIC_NAME>
N-tert-butyl-2,2,3,3,4,4,4-heptakis(fluoranyl)-N-[3-[(4-morpholin-4-yl-1,2,5-thiadiazol-3-yl)oxy]-2-trimethylsilyloxy-propyl]butanamide
> <PUBCHEM_IUPAC_TRADITIONAL_NAME>
N-tert-butyl-2,2,3,3,4,4,4-heptafluoro-N-[3-[(4-morpholino-1,2,5-thiadiazol-3-yl)oxy]-2-trimethylsilyloxy-propyl]butyramide
> <PUBCHEM_IUPAC_INCHI>
InChI=1S/C20H31F7N4O4SSi/c1-17(2,3)31(16(32)18(21,22)19(23,24)20(25,26)27)11-13(35-37(4,5)6)12-34-15-14(28-36-29-15)30-7-9-33-10-8-30/h13H,7-12H2,1-6H3
> <PUBCHEM_IUPAC_INCHIKEY>
JLNCXADSXSCRFZ-UHFFFAOYSA-N
> <PUBCHEM_EXACT_MASS>
584.17235033
> <PUBCHEM_MOLECULAR_FORMULA>
C20H31F7N4O4SSi
> <PUBCHEM_MOLECULAR_WEIGHT>
584.6
> <PUBCHEM_OPENEYE_CAN_SMILES>
CC(C)(C)N(CC(COC1=NSN=C1N2CCOCC2)O[Si](C)(C)C)C(=O)C(C(C(F)(F)F)(F)F)(F)F
> <PUBCHEM_OPENEYE_ISO_SMILES>
CC(C)(C)N(CC(COC1=NSN=C1N2CCOCC2)O[Si](C)(C)C)C(=O)C(C(C(F)(F)F)(F)F)(F)F
> <PUBCHEM_CACTVS_TPSA>
105
> <PUBCHEM_MONOISOTOPIC_WEIGHT>
584.17235033
> <PUBCHEM_TOTAL_CHARGE>
0
> <PUBCHEM_HEAVY_ATOM_COUNT>
37
> <PUBCHEM_ATOM_DEF_STEREO_COUNT>
0
> <PUBCHEM_ATOM_UDEF_STEREO_COUNT>
1
> <PUBCHEM_BOND_DEF_STEREO_COUNT>
0
> <PUBCHEM_BOND_UDEF_STEREO_COUNT>
0
> <PUBCHEM_ISOTOPIC_ATOM_COUNT>
0
> <PUBCHEM_COMPONENT_COUNT>
1
> <PUBCHEM_CACTVS_TAUTO_COUNT>
-1
> <PUBCHEM_COORDINATE_TYPE>
1
5
255
> <PUBCHEM_BONDANNOTATIONS>
1  16  8
1  17  8
16  33  8
17  34  8
20  19  3
33  34  8
$$$$
