526453
  -OEChem-10302200292D
 38 41  0     1  0  0  0  0  0999 V2000
    8.1647   -0.5270    0.0000 Cl  0  0  0  0  0  0  0  0  0  0  0  0
    3.1204    2.1799    0.0000 O   0  0  0  0  0  0  0  0  0  0  0  0
    2.3100    0.4971    0.0000 O   0  0  0  0  0  0  0  0  0  0  0  0
    4.7188    1.6206    0.0000 N   0  0  0  0  0  0  0  0  0  0  0  0
    3.7439   -0.4038    0.0000 N   0  0  0  0  0  0  0  0  0  0  0  0
    4.9413    2.5956    0.0000 C   0  0  0  0  0  0  0  0  0  0  0  0
    5.6215    3.3286    0.0000 C   0  0  0  0  0  0  0  0  0  0  0  0
    4.6466    3.5511    0.0000 C   0  0  0  0  0  0  0  0  0  0  0  0
    5.5006    0.9971    0.0000 C   0  0  0  0  0  0  0  0  0  0  0  0
    3.7439    1.3981    0.0000 C   0  0  0  0  0  0  0  0  0  0  0  0
    5.5006   -0.0029    0.0000 C   0  0  0  0  0  0  0  0  0  0  0  0
    3.3100    0.4971    0.0000 C   0  0  3  0  0  0  0  0  0  0  0  0
    6.3946    1.5318    0.0000 C   0  0  0  0  0  0  0  0  0  0  0  0
    4.7188   -0.6263    0.0000 C   0  0  0  0  0  0  0  0  0  0  0  0
    6.3946   -0.5375    0.0000 C   0  0  0  0  0  0  0  0  0  0  0  0
    7.3006    1.0180    0.0000 C   0  0  0  0  0  0  0  0  0  0  0  0
    4.9413   -1.6013    0.0000 C   0  0  0  0  0  0  0  0  0  0  0  0
    7.3006   -0.0237    0.0000 C   0  0  0  0  0  0  0  0  0  0  0  0
    4.2083   -2.2814    0.0000 C   0  0  0  0  0  0  0  0  0  0  0  0
    5.8969   -1.8960    0.0000 C   0  0  0  0  0  0  0  0  0  0  0  0
    4.4308   -3.2564    0.0000 C   0  0  0  0  0  0  0  0  0  0  0  0
    6.1194   -2.8710    0.0000 C   0  0  0  0  0  0  0  0  0  0  0  0
    5.3864   -3.5511    0.0000 C   0  0  0  0  0  0  0  0  0  0  0  0
    5.4895    2.3058    0.0000 H   0  0  0  0  0  0  0  0  0  0  0  0
    6.1423    2.9922    0.0000 H   0  0  0  0  0  0  0  0  0  0  0  0
    5.8623    3.8999    0.0000 H   0  0  0  0  0  0  0  0  0  0  0  0
    4.6775    4.1704    0.0000 H   0  0  0  0  0  0  0  0  0  0  0  0
    4.0314    3.4740    0.0000 H   0  0  0  0  0  0  0  0  0  0  0  0
    2.9801    1.0221    0.0000 H   0  0  0  0  0  0  0  0  0  0  0  0
    6.3874    2.1518    0.0000 H   0  0  0  0  0  0  0  0  0  0  0  0
    6.3874   -1.1575    0.0000 H   0  0  0  0  0  0  0  0  0  0  0  0
    7.8364    1.3300    0.0000 H   0  0  0  0  0  0  0  0  0  0  0  0
    2.0000   -0.0398    0.0000 H   0  0  0  0  0  0  0  0  0  0  0  0
    3.6158   -2.0987    0.0000 H   0  0  0  0  0  0  0  0  0  0  0  0
    6.3514   -1.4743    0.0000 H   0  0  0  0  0  0  0  0  0  0  0  0
    3.9763   -3.6781    0.0000 H   0  0  0  0  0  0  0  0  0  0  0  0
    6.7119   -3.0537    0.0000 H   0  0  0  0  0  0  0  0  0  0  0  0
    5.5243   -4.1556    0.0000 H   0  0  0  0  0  0  0  0  0  0  0  0
  1 18  1  0  0  0  0
  2 10  2  0  0  0  0
  3 12  1  0  0  0  0
  3 33  1  0  0  0  0
  4  6  1  0  0  0  0
  4  9  1  0  0  0  0
  4 10  1  0  0  0  0
  5 12  1  0  0  0  0
  5 14  2  0  0  0  0
  6  7  1  0  0  0  0
  6  8  1  0  0  0  0
  6 24  1  0  0  0  0
  7  8  1  0  0  0  0
  7 25  1  0  0  0  0
  7 26  1  0  0  0  0
  8 27  1  0  0  0  0
  8 28  1  0  0  0  0
  9 11  2  0  0  0  0
  9 13  1  0  0  0  0
 10 12  1  0  0  0  0
 11 14  1  0  0  0  0
 11 15  1  0  0  0  0
 12 29  1  0  0  0  0
 13 16  2  0  0  0  0
 13 30  1  0  0  0  0
 14 17  1  0  0  0  0
 15 18  2  0  0  0  0
 15 31  1  0  0  0  0
 16 18  1  0  0  0  0
 16 32  1  0  0  0  0
 17 19  2  0  0  0  0
 17 20  1  0  0  0  0
 19 21  1  0  0  0  0
 19 34  1  0  0  0  0
 20 22  2  0  0  0  0
 20 35  1  0  0  0  0
 21 23  2  0  0  0  0
 21 36  1  0  0  0  0
 22 23  1  0  0  0  0
 22 37  1  0  0  0  0
 23 38  1  0  0  0  0
M  END
> <PUBCHEM_COMPOUND_CID>
526453
> <PUBCHEM_COMPOUND_CANONICALIZED>
1
> <PUBCHEM_CACTVS_COMPLEXITY>
499
> <PUBCHEM_CACTVS_HBOND_ACCEPTOR>
3
> <PUBCHEM_CACTVS_HBOND_DONOR>
1
> <PUBCHEM_CACTVS_ROTATABLE_BOND>
2
> <PUBCHEM_CACTVS_SUBSKEYS>
AAADccB7MAAEAAAAAAAAAAAAGAAAAAAAAAAwYAAABAAAAAABQAAAHgIACAAADCrhmCYwwIMAAgCoAyVyVAKCAAAhBwAIiADoZpgKcKLBk5GUIAhghgDYyAcQgMAOAABAIAACAAAAAIBAAAQAAAAAAAAAAA==
> <PUBCHEM_IUPAC_OPENEYE_NAME>
7-chloro-1-cyclopropyl-3-hydroxy-5-phenyl-3H-1,4-benzodiazepin-2-one
> <PUBCHEM_IUPAC_CAS_NAME>
7-chloro-1-cyclopropyl-3-hydroxy-5-phenyl-3H-1,4-benzodiazepin-2-one
> <PUBCHEM_IUPAC_NAME_MARKUP>
7-chloro-1-cyclopropyl-3-hydroxy-5-phenyl-3<I>H</I>-1,4-benzodiazepin-2-one
> <PUBCHEM_IUPAC_NAME>
7-chloro-1-cyclopropyl-3-hydroxy-5-phenyl-3H-1,4-benzodiazepin-2-one
> <PUBCHEM_IUPAC_SYSTEMATIC_NAME>
7-chloranyl-1-cyclopropyl-3-oxidanyl-5-phenyl-3H-1,4-benzodiazepin-2-one
> <PUBCHEM_IUPAC_TRADITIONAL_NAME>
7-chloro-1-cyclopropyl-3-hydroxy-5-phenyl-3H-1,4-benzodiazepin-2-one
> <PUBCHEM_IUPAC_INCHI>
InChI=1S/C18H15ClN2O2/c19-12-6-9-15-14(10-12)16(11-4-2-1-3-5-11)20-17(22)18(23)21(15)13-7-8-13/h1-6,9-10,13,17,22H,7-8H2
> <PUBCHEM_IUPAC_INCHIKEY>
FSBZZQYOKRMUSO-UHFFFAOYSA-N
> <PUBCHEM_XLOGP3>
2.7
> <PUBCHEM_EXACT_MASS>
326.0822054
> <PUBCHEM_MOLECULAR_FORMULA>
C18H15ClN2O2
> <PUBCHEM_MOLECULAR_WEIGHT>
326.8
> <PUBCHEM_OPENEYE_CAN_SMILES>
C1CC1N2C3=C(C=C(C=C3)Cl)C(=NC(C2=O)O)C4=CC=CC=C4
> <PUBCHEM_OPENEYE_ISO_SMILES>
C1CC1N2C3=C(C=C(C=C3)Cl)C(=NC(C2=O)O)C4=CC=CC=C4
> <PUBCHEM_CACTVS_TPSA>
52.9
> <PUBCHEM_MONOISOTOPIC_WEIGHT>
326.0822054
> <PUBCHEM_TOTAL_CHARGE>
0
> <PUBCHEM_HEAVY_ATOM_COUNT>
23
> <PUBCHEM_ATOM_DEF_STEREO_COUNT>
0
> <PUBCHEM_ATOM_UDEF_STEREO_COUNT>
1
> <PUBCHEM_BOND_DEF_STEREO_COUNT>
0
> <PUBCHEM_BOND_UDEF_STEREO_COUNT>
0
> <PUBCHEM_ISOTOPIC_ATOM_COUNT>
0
> <PUBCHEM_COMPONENT_COUNT>
1
> <PUBCHEM_CACTVS_TAUTO_COUNT>
-1
> <PUBCHEM_COORDINATE_TYPE>
1
5
255
> <PUBCHEM_BONDANNOTATIONS>
11  15  8
13  16  8
15  18  8
16  18  8
17  19  8
17  20  8
19  21  8
20  22  8
21  23  8
22  23  8
12  3  3
9  11  8
9  13  8
$$$$
