526481
  -OEChem-10302200292D
 83 84  0     1  0  0  0  0  0999 V2000
    2.8660   -4.8541    0.0000 Si  0  0  0  0  0  0  0  0  0  0  0  0
    5.4458    2.6803    0.0000 Si  0  0  0  0  0  0  0  0  0  0  0  0
    9.9096    2.7319    0.0000 F   0  0  0  0  0  0  0  0  0  0  0  0
    7.9097    2.7088    0.0000 F   0  0  0  0  0  0  0  0  0  0  0  0
    9.8980    3.7318    0.0000 F   0  0  0  0  0  0  0  0  0  0  0  0
    7.8981    3.7087    0.0000 F   0  0  0  0  0  0  0  0  0  0  0  0
    8.8749    5.7201    0.0000 F   0  0  0  0  0  0  0  0  0  0  0  0
    9.8864    4.7318    0.0000 F   0  0  0  0  0  0  0  0  0  0  0  0
    7.8866    4.7086    0.0000 F   0  0  0  0  0  0  0  0  0  0  0  0
    3.7320   -4.3541    0.0000 O   0  0  0  0  0  0  0  0  0  0  0  0
    5.4573    1.6804    0.0000 O   0  0  0  0  0  0  0  0  0  0  0  0
    5.4804   -0.3195    0.0000 O   0  0  0  0  0  0  0  0  0  0  0  0
    9.7930    1.2304    0.0000 O   0  0  0  0  0  0  0  0  0  0  0  0
    8.0610    1.2104    0.0000 N   0  0  0  0  0  0  0  0  0  0  0  0
    3.7320   -3.3541    0.0000 C   0  0  3  0  0  0  0  0  0  0  0  0
    2.8660   -2.8541    0.0000 C   0  0  0  0  0  0  0  0  0  0  0  0
    2.8660   -1.8541    0.0000 C   0  0  0  0  0  0  0  0  0  0  0  0
    4.5981   -2.8541    0.0000 C   0  0  0  0  0  0  0  0  0  0  0  0
    3.7320   -1.3541    0.0000 C   0  0  0  0  0  0  0  0  0  0  0  0
    4.5981   -1.8541    0.0000 C   0  0  0  0  0  0  0  0  0  0  0  0
    8.0726    0.2105    0.0000 C   0  0  0  0  0  0  0  0  0  0  0  0
    6.3291    1.1904    0.0000 C   0  0  3  0  0  0  0  0  0  0  0  0
    7.1893    1.7004    0.0000 C   0  0  0  0  0  0  0  0  0  0  0  0
    5.4920   -1.3194    0.0000 C   0  0  0  0  0  0  0  0  0  0  0  0
    6.3406    0.1905    0.0000 C   0  0  0  0  0  0  0  0  0  0  0  0
    5.4920   -3.3888    0.0000 C   0  0  0  0  0  0  0  0  0  0  0  0
    9.0725    0.2221    0.0000 C   0  0  0  0  0  0  0  0  0  0  0  0
    7.0726    0.1989    0.0000 C   0  0  0  0  0  0  0  0  0  0  0  0
    8.0841   -0.7894    0.0000 C   0  0  0  0  0  0  0  0  0  0  0  0
    8.9212    1.7204    0.0000 C   0  0  0  0  0  0  0  0  0  0  0  0
    6.3981   -1.8333    0.0000 C   0  0  0  0  0  0  0  0  0  0  0  0
    6.3981   -2.8749    0.0000 C   0  0  0  0  0  0  0  0  0  0  0  0
    2.0000   -5.3541    0.0000 C   0  0  0  0  0  0  0  0  0  0  0  0
    3.3660   -5.7201    0.0000 C   0  0  0  0  0  0  0  0  0  0  0  0
    2.3660   -3.9881    0.0000 C   0  0  0  0  0  0  0  0  0  0  0  0
    8.9096    2.7203    0.0000 C   0  0  0  0  0  0  0  0  0  0  0  0
    4.4458    2.6687    0.0000 C   0  0  0  0  0  0  0  0  0  0  0  0
    5.4342    3.6802    0.0000 C   0  0  0  0  0  0  0  0  0  0  0  0
    6.4457    2.6918    0.0000 C   0  0  0  0  0  0  0  0  0  0  0  0
    8.8981    3.7203    0.0000 C   0  0  0  0  0  0  0  0  0  0  0  0
    8.8865    4.7202    0.0000 C   0  0  0  0  0  0  0  0  0  0  0  0
    4.2690   -3.6641    0.0000 H   0  0  0  0  0  0  0  0  0  0  0  0
    2.2554   -2.7464    0.0000 H   0  0  0  0  0  0  0  0  0  0  0  0
    2.6540   -3.4367    0.0000 H   0  0  0  0  0  0  0  0  0  0  0  0
    2.6540   -1.2715    0.0000 H   0  0  0  0  0  0  0  0  0  0  0  0
    2.2554   -1.9618    0.0000 H   0  0  0  0  0  0  0  0  0  0  0  0
    4.1306   -0.8792    0.0000 H   0  0  0  0  0  0  0  0  0  0  0  0
    3.3335   -0.8792    0.0000 H   0  0  0  0  0  0  0  0  0  0  0  0
    5.7958    0.8742    0.0000 H   0  0  0  0  0  0  0  0  0  0  0  0
    7.5823    2.1799    0.0000 H   0  0  0  0  0  0  0  0  0  0  0  0
    6.7853    2.1707    0.0000 H   0  0  0  0  0  0  0  0  0  0  0  0
    6.5594   -0.3897    0.0000 H   0  0  0  0  0  0  0  0  0  0  0  0
    6.9499    0.3052    0.0000 H   0  0  0  0  0  0  0  0  0  0  0  0
    5.4848   -4.0087    0.0000 H   0  0  0  0  0  0  0  0  0  0  0  0
    9.0797   -0.3979    0.0000 H   0  0  0  0  0  0  0  0  0  0  0  0
    9.6925    0.2292    0.0000 H   0  0  0  0  0  0  0  0  0  0  0  0
    9.0653    0.8420    0.0000 H   0  0  0  0  0  0  0  0  0  0  0  0
    7.0655    0.8189    0.0000 H   0  0  0  0  0  0  0  0  0  0  0  0
    6.4527    0.1918    0.0000 H   0  0  0  0  0  0  0  0  0  0  0  0
    7.0798   -0.4210    0.0000 H   0  0  0  0  0  0  0  0  0  0  0  0
    7.4642   -0.7966    0.0000 H   0  0  0  0  0  0  0  0  0  0  0  0
    8.0913   -1.4094    0.0000 H   0  0  0  0  0  0  0  0  0  0  0  0
    8.7041   -0.7823    0.0000 H   0  0  0  0  0  0  0  0  0  0  0  0
    6.9338   -1.5212    0.0000 H   0  0  0  0  0  0  0  0  0  0  0  0
    6.9338   -3.1870    0.0000 H   0  0  0  0  0  0  0  0  0  0  0  0
    1.6900   -4.8172    0.0000 H   0  0  0  0  0  0  0  0  0  0  0  0
    1.4631   -5.6641    0.0000 H   0  0  0  0  0  0  0  0  0  0  0  0
    2.3100   -5.8910    0.0000 H   0  0  0  0  0  0  0  0  0  0  0  0
    2.8291   -6.0301    0.0000 H   0  0  0  0  0  0  0  0  0  0  0  0
    3.6760   -6.2571    0.0000 H   0  0  0  0  0  0  0  0  0  0  0  0
    3.9030   -5.4101    0.0000 H   0  0  0  0  0  0  0  0  0  0  0  0
    2.9030   -3.6781    0.0000 H   0  0  0  0  0  0  0  0  0  0  0  0
    2.0560   -3.4512    0.0000 H   0  0  0  0  0  0  0  0  0  0  0  0
    1.8291   -4.2981    0.0000 H   0  0  0  0  0  0  0  0  0  0  0  0
    4.4387    3.2887    0.0000 H   0  0  0  0  0  0  0  0  0  0  0  0
    3.8259    2.6616    0.0000 H   0  0  0  0  0  0  0  0  0  0  0  0
    4.4530    2.0488    0.0000 H   0  0  0  0  0  0  0  0  0  0  0  0
    6.0542    3.6874    0.0000 H   0  0  0  0  0  0  0  0  0  0  0  0
    5.4270    4.3002    0.0000 H   0  0  0  0  0  0  0  0  0  0  0  0
    4.8142    3.6730    0.0000 H   0  0  0  0  0  0  0  0  0  0  0  0
    6.4529    2.0719    0.0000 H   0  0  0  0  0  0  0  0  0  0  0  0
    7.0657    2.6990    0.0000 H   0  0  0  0  0  0  0  0  0  0  0  0
    6.4385    3.3118    0.0000 H   0  0  0  0  0  0  0  0  0  0  0  0
  1 10  1  0  0  0  0
  1 33  1  0  0  0  0
  1 34  1  0  0  0  0
  1 35  1  0  0  0  0
  2 11  1  0  0  0  0
  2 37  1  0  0  0  0
  2 38  1  0  0  0  0
  2 39  1  0  0  0  0
  3 36  1  0  0  0  0
  4 36  1  0  0  0  0
  5 40  1  0  0  0  0
  6 40  1  0  0  0  0
  7 41  1  0  0  0  0
  8 41  1  0  0  0  0
  9 41  1  0  0  0  0
 10 15  1  0  0  0  0
 11 22  1  0  0  0  0
 12 24  1  0  0  0  0
 12 25  1  0  0  0  0
 13 30  2  0  0  0  0
 14 21  1  0  0  0  0
 14 23  1  0  0  0  0
 14 30  1  0  0  0  0
 15 16  1  0  0  0  0
 15 18  1  0  0  0  0
 15 42  1  0  0  0  0
 16 17  1  0  0  0  0
 16 43  1  0  0  0  0
 16 44  1  0  0  0  0
 17 19  1  0  0  0  0
 17 45  1  0  0  0  0
 17 46  1  0  0  0  0
 18 20  2  0  0  0  0
 18 26  1  0  0  0  0
 19 20  1  0  0  0  0
 19 47  1  0  0  0  0
 19 48  1  0  0  0  0
 20 24  1  0  0  0  0
 21 27  1  0  0  0  0
 21 28  1  0  0  0  0
 21 29  1  0  0  0  0
 22 23  1  0  0  0  0
 22 25  1  0  0  0  0
 22 49  1  0  0  0  0
 23 50  1  0  0  0  0
 23 51  1  0  0  0  0
 24 31  2  0  0  0  0
 25 52  1  0  0  0  0
 25 53  1  0  0  0  0
 26 32  2  0  0  0  0
 26 54  1  0  0  0  0
 27 55  1  0  0  0  0
 27 56  1  0  0  0  0
 27 57  1  0  0  0  0
 28 58  1  0  0  0  0
 28 59  1  0  0  0  0
 28 60  1  0  0  0  0
 29 61  1  0  0  0  0
 29 62  1  0  0  0  0
 29 63  1  0  0  0  0
 30 36  1  0  0  0  0
 31 32  1  0  0  0  0
 31 64  1  0  0  0  0
 32 65  1  0  0  0  0
 33 66  1  0  0  0  0
 33 67  1  0  0  0  0
 33 68  1  0  0  0  0
 34 69  1  0  0  0  0
 34 70  1  0  0  0  0
 34 71  1  0  0  0  0
 35 72  1  0  0  0  0
 35 73  1  0  0  0  0
 35 74  1  0  0  0  0
 36 40  1  0  0  0  0
 37 75  1  0  0  0  0
 37 76  1  0  0  0  0
 37 77  1  0  0  0  0
 38 78  1  0  0  0  0
 38 79  1  0  0  0  0
 38 80  1  0  0  0  0
 39 81  1  0  0  0  0
 39 82  1  0  0  0  0
 39 83  1  0  0  0  0
 40 41  1  0  0  0  0
M  END
> <PUBCHEM_COMPOUND_CID>
526481
> <PUBCHEM_COMPOUND_CANONICALIZED>
1
> <PUBCHEM_CACTVS_COMPLEXITY>
885
> <PUBCHEM_CACTVS_HBOND_ACCEPTOR>
11
> <PUBCHEM_CACTVS_HBOND_DONOR>
0
> <PUBCHEM_CACTVS_ROTATABLE_BOND>
12
> <PUBCHEM_CACTVS_SUBSKEYS>
AAADcfB6OcwAAAAAAAAAAAAAAAAAAAAAAAAwYAAAAAAAAADBAAAAHxAAAEAADJzhmBZyBoMABAGIAiFSEAACCAAgIAAIiAEOCIgPJjKEsRqGOCCmxhGaqAfAwLAOgAABAAAYAAAAAAIAADAAAAAAAAAAAA==
> <PUBCHEM_IUPAC_OPENEYE_NAME>
N-tert-butyl-2,2,3,3,4,4,4-heptafluoro-N-[2-trimethylsilyloxy-3-(1-trimethylsilyloxytetralin-5-yl)oxy-propyl]butanamide
> <PUBCHEM_IUPAC_CAS_NAME>
N-tert-butyl-2,2,3,3,4,4,4-heptafluoro-N-[2-trimethylsilyloxy-3-[(5-trimethylsilyloxy-5,6,7,8-tetrahydronaphthalen-1-yl)oxy]propyl]butanamide
> <PUBCHEM_IUPAC_NAME_MARKUP>
<I>N</I>-<I>tert</I>-butyl-2,2,3,3,4,4,4-heptafluoro-<I>N</I>-[2-trimethylsilyloxy-3-[(5-trimethylsilyloxy-5,6,7,8-tetrahydronaphthalen-1-yl)oxy]propyl]butanamide
> <PUBCHEM_IUPAC_NAME>
N-tert-butyl-2,2,3,3,4,4,4-heptafluoro-N-[2-trimethylsilyloxy-3-[(5-trimethylsilyloxy-5,6,7,8-tetrahydronaphthalen-1-yl)oxy]propyl]butanamide
> <PUBCHEM_IUPAC_SYSTEMATIC_NAME>
N-tert-butyl-2,2,3,3,4,4,4-heptakis(fluoranyl)-N-[2-trimethylsilyloxy-3-[(5-trimethylsilyloxy-5,6,7,8-tetrahydronaphthalen-1-yl)oxy]propyl]butanamide
> <PUBCHEM_IUPAC_TRADITIONAL_NAME>
N-tert-butyl-2,2,3,3,4,4,4-heptafluoro-N-[2-trimethylsilyloxy-3-(1-trimethylsilyloxytetralin-5-yl)oxy-propyl]butyramide
> <PUBCHEM_IUPAC_INCHI>
InChI=1S/C27H42F7NO4Si2/c1-24(2,3)35(23(36)25(28,29)26(30,31)27(32,33)34)16-18(38-40(4,5)6)17-37-21-14-10-13-20-19(21)12-11-15-22(20)39-41(7,8)9/h10,13-14,18,22H,11-12,15-17H2,1-9H3
> <PUBCHEM_IUPAC_INCHIKEY>
TZYYGCNUKMIQRX-UHFFFAOYSA-N
> <PUBCHEM_EXACT_MASS>
633.25405902
> <PUBCHEM_MOLECULAR_FORMULA>
C27H42F7NO4Si2
> <PUBCHEM_MOLECULAR_WEIGHT>
633.8
> <PUBCHEM_OPENEYE_CAN_SMILES>
CC(C)(C)N(CC(COC1=CC=CC2=C1CCCC2O[Si](C)(C)C)O[Si](C)(C)C)C(=O)C(C(C(F)(F)F)(F)F)(F)F
> <PUBCHEM_OPENEYE_ISO_SMILES>
CC(C)(C)N(CC(COC1=CC=CC2=C1CCCC2O[Si](C)(C)C)O[Si](C)(C)C)C(=O)C(C(C(F)(F)F)(F)F)(F)F
> <PUBCHEM_CACTVS_TPSA>
48
> <PUBCHEM_MONOISOTOPIC_WEIGHT>
633.25405902
> <PUBCHEM_TOTAL_CHARGE>
0
> <PUBCHEM_HEAVY_ATOM_COUNT>
41
> <PUBCHEM_ATOM_DEF_STEREO_COUNT>
0
> <PUBCHEM_ATOM_UDEF_STEREO_COUNT>
2
> <PUBCHEM_BOND_DEF_STEREO_COUNT>
0
> <PUBCHEM_BOND_UDEF_STEREO_COUNT>
0
> <PUBCHEM_ISOTOPIC_ATOM_COUNT>
0
> <PUBCHEM_COMPONENT_COUNT>
1
> <PUBCHEM_CACTVS_TAUTO_COUNT>
-1
> <PUBCHEM_COORDINATE_TYPE>
1
5
255
> <PUBCHEM_BONDANNOTATIONS>
15  10  3
18  20  8
18  26  8
20  24  8
22  23  3
24  31  8
26  32  8
31  32  8
$$$$
