526504
  -OEChem-10302200292D
 54 54  0     1  0  0  0  0  0999 V2000
    5.4641    3.0670    0.0000 Si  0  0  0  0  0  0  0  0  0  0  0  0
    4.5981    2.5670    0.0000 O   0  0  0  0  0  0  0  0  0  0  0  0
    5.4641    1.0670    0.0000 O   0  0  0  0  0  0  0  0  0  0  0  0
    6.3301    3.5670    0.0000 C   0  0  0  0  0  0  0  0  0  0  0  0
    7.1962    4.0670    0.0000 C   0  0  0  0  0  0  0  0  0  0  0  0
    5.8301    4.4330    0.0000 C   0  0  0  0  0  0  0  0  0  0  0  0
    6.8301    2.7010    0.0000 C   0  0  0  0  0  0  0  0  0  0  0  0
    4.9641    3.9330    0.0000 C   0  0  0  0  0  0  0  0  0  0  0  0
    5.9641    2.2010    0.0000 C   0  0  0  0  0  0  0  0  0  0  0  0
    3.7320    1.0670    0.0000 C   0  0  3  0  0  0  0  0  0  0  0  0
    4.5981    1.5670    0.0000 C   0  0  0  0  0  0  0  0  0  0  0  0
    3.7320    0.0670    0.0000 C   0  0  0  0  0  0  0  0  0  0  0  0
    2.8660    1.5670    0.0000 C   0  0  0  0  0  0  0  0  0  0  0  0
    3.7320   -2.9330    0.0000 C   0  0  0  0  0  0  0  0  0  0  0  0
    2.8660   -3.4330    0.0000 C   0  0  0  0  0  0  0  0  0  0  0  0
    3.7320   -1.9330    0.0000 C   0  0  0  0  0  0  0  0  0  0  0  0
    2.8660   -0.4330    0.0000 C   0  0  0  0  0  0  0  0  0  0  0  0
    4.5981   -0.4330    0.0000 C   0  0  0  0  0  0  0  0  0  0  0  0
    2.8660   -1.4330    0.0000 C   0  0  0  0  0  0  0  0  0  0  0  0
    4.5981   -1.4330    0.0000 C   0  0  0  0  0  0  0  0  0  0  0  0
    2.8660   -4.4330    0.0000 C   0  0  0  0  0  0  0  0  0  0  0  0
    2.0000   -2.9330    0.0000 C   0  0  0  0  0  0  0  0  0  0  0  0
    7.5062    3.5300    0.0000 H   0  0  0  0  0  0  0  0  0  0  0  0
    7.7331    4.3770    0.0000 H   0  0  0  0  0  0  0  0  0  0  0  0
    6.8862    4.6039    0.0000 H   0  0  0  0  0  0  0  0  0  0  0  0
    6.3671    4.7430    0.0000 H   0  0  0  0  0  0  0  0  0  0  0  0
    5.5201    4.9700    0.0000 H   0  0  0  0  0  0  0  0  0  0  0  0
    5.2932    4.1230    0.0000 H   0  0  0  0  0  0  0  0  0  0  0  0
    6.2932    2.3910    0.0000 H   0  0  0  0  0  0  0  0  0  0  0  0
    7.1401    2.1640    0.0000 H   0  0  0  0  0  0  0  0  0  0  0  0
    7.3671    3.0110    0.0000 H   0  0  0  0  0  0  0  0  0  0  0  0
    5.5010    4.2430    0.0000 H   0  0  0  0  0  0  0  0  0  0  0  0
    4.6541    4.4700    0.0000 H   0  0  0  0  0  0  0  0  0  0  0  0
    4.4272    3.6230    0.0000 H   0  0  0  0  0  0  0  0  0  0  0  0
    5.4272    1.8910    0.0000 H   0  0  0  0  0  0  0  0  0  0  0  0
    6.2741    1.6640    0.0000 H   0  0  0  0  0  0  0  0  0  0  0  0
    6.5010    2.5110    0.0000 H   0  0  0  0  0  0  0  0  0  0  0  0
    3.7320    1.6870    0.0000 H   0  0  0  0  0  0  0  0  0  0  0  0
    3.1760    2.1039    0.0000 H   0  0  0  0  0  0  0  0  0  0  0  0
    2.3291    1.8770    0.0000 H   0  0  0  0  0  0  0  0  0  0  0  0
    2.5560    1.0300    0.0000 H   0  0  0  0  0  0  0  0  0  0  0  0
    3.9441   -3.5156    0.0000 H   0  0  0  0  0  0  0  0  0  0  0  0
    4.3426   -2.8253    0.0000 H   0  0  0  0  0  0  0  0  0  0  0  0
    2.8660   -2.8130    0.0000 H   0  0  0  0  0  0  0  0  0  0  0  0
    2.3291   -0.1230    0.0000 H   0  0  0  0  0  0  0  0  0  0  0  0
    5.1350   -0.1230    0.0000 H   0  0  0  0  0  0  0  0  0  0  0  0
    2.3291   -1.7430    0.0000 H   0  0  0  0  0  0  0  0  0  0  0  0
    5.1350   -1.7430    0.0000 H   0  0  0  0  0  0  0  0  0  0  0  0
    2.2460   -4.4330    0.0000 H   0  0  0  0  0  0  0  0  0  0  0  0
    2.8660   -5.0530    0.0000 H   0  0  0  0  0  0  0  0  0  0  0  0
    3.4860   -4.4330    0.0000 H   0  0  0  0  0  0  0  0  0  0  0  0
    2.3100   -2.3961    0.0000 H   0  0  0  0  0  0  0  0  0  0  0  0
    1.4631   -2.6230    0.0000 H   0  0  0  0  0  0  0  0  0  0  0  0
    1.6900   -3.4700    0.0000 H   0  0  0  0  0  0  0  0  0  0  0  0
  1  2  1  0  0  0  0
  1  4  1  0  0  0  0
  1  8  1  0  0  0  0
  1  9  1  0  0  0  0
  2 11  1  0  0  0  0
  3 11  2  0  0  0  0
  4  5  1  0  0  0  0
  4  6  1  0  0  0  0
  4  7  1  0  0  0  0
  5 23  1  0  0  0  0
  5 24  1  0  0  0  0
  5 25  1  0  0  0  0
  6 26  1  0  0  0  0
  6 27  1  0  0  0  0
  6 28  1  0  0  0  0
  7 29  1  0  0  0  0
  7 30  1  0  0  0  0
  7 31  1  0  0  0  0
  8 32  1  0  0  0  0
  8 33  1  0  0  0  0
  8 34  1  0  0  0  0
  9 35  1  0  0  0  0
  9 36  1  0  0  0  0
  9 37  1  0  0  0  0
 10 11  1  0  0  0  0
 10 12  1  0  0  0  0
 10 13  1  0  0  0  0
 10 38  1  0  0  0  0
 12 17  2  0  0  0  0
 12 18  1  0  0  0  0
 13 39  1  0  0  0  0
 13 40  1  0  0  0  0
 13 41  1  0  0  0  0
 14 15  1  0  0  0  0
 14 16  1  0  0  0  0
 14 42  1  0  0  0  0
 14 43  1  0  0  0  0
 15 21  1  0  0  0  0
 15 22  1  0  0  0  0
 15 44  1  0  0  0  0
 16 19  2  0  0  0  0
 16 20  1  0  0  0  0
 17 19  1  0  0  0  0
 17 45  1  0  0  0  0
 18 20  2  0  0  0  0
 18 46  1  0  0  0  0
 19 47  1  0  0  0  0
 20 48  1  0  0  0  0
 21 49  1  0  0  0  0
 21 50  1  0  0  0  0
 21 51  1  0  0  0  0
 22 52  1  0  0  0  0
 22 53  1  0  0  0  0
 22 54  1  0  0  0  0
M  END
> <PUBCHEM_COMPOUND_CID>
526504
> <PUBCHEM_COMPOUND_CANONICALIZED>
1
> <PUBCHEM_CACTVS_COMPLEXITY>
360
> <PUBCHEM_CACTVS_HBOND_ACCEPTOR>
2
> <PUBCHEM_CACTVS_HBOND_DONOR>
0
> <PUBCHEM_CACTVS_ROTATABLE_BOND>
7
> <PUBCHEM_CACTVS_SUBSKEYS>
AAADcfB4MAgAAAAAAAAAAAAAAAAAAAAAAAAwAAAAAAAAAAABAAAAGhAAAEAADQCAuAByCIAAAAGIAiDSCAACAAAgAAAIiAEAAIgIIDKAFRCAIAAkwAEIiAeIyOCOwAAAAAAAAACAAAAAAAAAAAAAAAAAAA==
> <PUBCHEM_IUPAC_OPENEYE_NAME>
[tert-butyl(dimethyl)silyl] 2-(4-isobutylphenyl)propanoate
> <PUBCHEM_IUPAC_CAS_NAME>
2-[4-(2-methylpropyl)phenyl]propanoic acid [tert-butyl(dimethyl)silyl] ester
> <PUBCHEM_IUPAC_NAME_MARKUP>
[<I>tert</I>-butyl(dimethyl)silyl] 2-[4-(2-methylpropyl)phenyl]propanoate
> <PUBCHEM_IUPAC_NAME>
[tert-butyl(dimethyl)silyl] 2-[4-(2-methylpropyl)phenyl]propanoate
> <PUBCHEM_IUPAC_SYSTEMATIC_NAME>
[tert-butyl(dimethyl)silyl] 2-[4-(2-methylpropyl)phenyl]propanoate
> <PUBCHEM_IUPAC_TRADITIONAL_NAME>
2-(4-isobutylphenyl)propionic acid [tert-butyl(dimethyl)silyl] ester
> <PUBCHEM_IUPAC_INCHI>
InChI=1S/C19H32O2Si/c1-14(2)13-16-9-11-17(12-10-16)15(3)18(20)21-22(7,8)19(4,5)6/h9-12,14-15H,13H2,1-8H3
> <PUBCHEM_IUPAC_INCHIKEY>
QMEKPXMERNLPJY-UHFFFAOYSA-N
> <PUBCHEM_EXACT_MASS>
320.217156794
> <PUBCHEM_MOLECULAR_FORMULA>
C19H32O2Si
> <PUBCHEM_MOLECULAR_WEIGHT>
320.5
> <PUBCHEM_OPENEYE_CAN_SMILES>
CC(C)CC1=CC=C(C=C1)C(C)C(=O)O[Si](C)(C)C(C)(C)C
> <PUBCHEM_OPENEYE_ISO_SMILES>
CC(C)CC1=CC=C(C=C1)C(C)C(=O)O[Si](C)(C)C(C)(C)C
> <PUBCHEM_CACTVS_TPSA>
26.3
> <PUBCHEM_MONOISOTOPIC_WEIGHT>
320.217156794
> <PUBCHEM_TOTAL_CHARGE>
0
> <PUBCHEM_HEAVY_ATOM_COUNT>
22
> <PUBCHEM_ATOM_DEF_STEREO_COUNT>
0
> <PUBCHEM_ATOM_UDEF_STEREO_COUNT>
1
> <PUBCHEM_BOND_DEF_STEREO_COUNT>
0
> <PUBCHEM_BOND_UDEF_STEREO_COUNT>
0
> <PUBCHEM_ISOTOPIC_ATOM_COUNT>
0
> <PUBCHEM_COMPONENT_COUNT>
1
> <PUBCHEM_CACTVS_TAUTO_COUNT>
-1
> <PUBCHEM_COORDINATE_TYPE>
1
5
255
> <PUBCHEM_BONDANNOTATIONS>
10  13  3
12  17  8
12  18  8
16  19  8
16  20  8
17  19  8
18  20  8
$$$$
