526516
  -OEChem-10302200292D
 99102  0     1  0  0  0  0  0999 V2000
    9.1546   -3.6722    0.0000 Si  0  0  0  0  0  0  0  0  0  0  0  0
    2.8641   -2.1898    0.0000 Si  0  0  0  0  0  0  0  0  0  0  0  0
    9.1430   -2.6723    0.0000 O   0  0  0  0  0  0  0  0  0  0  0  0
    3.7282   -2.6932    0.0000 O   0  0  0  0  0  0  0  0  0  0  0  0
    9.1213    0.3591    0.0000 C   0  0  3  0  0  0  0  0  0  0  0  0
    9.1213   -0.6409    0.0000 C   0  0  3  0  0  0  0  0  0  0  0  0
    8.2552   -1.1408    0.0000 C   0  0  3  0  0  0  0  0  0  0  0  0
    7.3892   -0.6409    0.0000 C   0  0  3  0  0  0  0  0  0  0  0  0
   10.0675    0.6639    0.0000 C   0  0  3  0  0  0  0  0  0  0  0  0
    8.2552    0.8591    0.0000 C   0  0  0  0  0  0  0  0  0  0  0  0
    6.4792   -1.1477    0.0000 C   0  0  3  0  0  0  0  0  0  0  0  0
   10.0675   -0.9456    0.0000 C   0  0  0  0  0  0  0  0  0  0  0  0
    7.3892    0.3591    0.0000 C   0  0  0  0  0  0  0  0  0  0  0  0
   10.6511   -0.1409    0.0000 C   0  0  0  0  0  0  0  0  0  0  0  0
    8.2713   -2.1824    0.0000 C   0  0  3  0  0  0  0  0  0  0  0  0
   10.3781    1.6144    0.0000 C   0  0  3  0  0  0  0  0  0  0  0  0
    9.1213    1.3592    0.0000 C   0  0  0  0  0  0  0  0  0  0  0  0
    6.4712   -2.1893    0.0000 C   0  0  0  0  0  0  0  0  0  0  0  0
    5.5524   -0.5836    0.0000 C   0  0  0  0  0  0  0  0  0  0  0  0
    7.3733   -2.7101    0.0000 C   0  0  0  0  0  0  0  0  0  0  0  0
    6.4869   -0.1477    0.0000 C   0  0  0  0  0  0  0  0  0  0  0  0
    5.5358   -2.7390    0.0000 C   0  0  0  0  0  0  0  0  0  0  0  0
    4.6045   -1.1116    0.0000 C   0  0  0  0  0  0  0  0  0  0  0  0
    4.5961   -2.1965    0.0000 C   0  0  3  0  0  0  0  0  0  0  0  0
   11.3567    1.8206    0.0000 C   0  0  0  0  0  0  0  0  0  0  0  0
    9.7103    2.3587    0.0000 C   0  0  0  0  0  0  0  0  0  0  0  0
   11.6673    2.7711    0.0000 C   0  0  0  0  0  0  0  0  0  0  0  0
   12.6458    2.9774    0.0000 C   0  0  0  0  0  0  0  0  0  0  0  0
    9.1662   -4.6722    0.0000 C   0  0  0  0  0  0  0  0  0  0  0  0
   10.1545   -3.6607    0.0000 C   0  0  0  0  0  0  0  0  0  0  0  0
    8.1547   -3.6838    0.0000 C   0  0  0  0  0  0  0  0  0  0  0  0
   12.9565    3.9279    0.0000 C   0  0  0  0  0  0  0  0  0  0  0  0
    2.0000   -1.6865    0.0000 C   0  0  0  0  0  0  0  0  0  0  0  0
    2.3608   -3.0539    0.0000 C   0  0  0  0  0  0  0  0  0  0  0  0
    3.3674   -1.3258    0.0000 C   0  0  0  0  0  0  0  0  0  0  0  0
   13.9350    4.1341    0.0000 C   0  0  0  0  0  0  0  0  0  0  0  0
   12.2886    4.6722    0.0000 C   0  0  0  0  0  0  0  0  0  0  0  0
    9.1869   -1.2574    0.0000 H   0  0  0  0  0  0  0  0  0  0  0  0
    8.7945   -1.4467    0.0000 H   0  0  0  0  0  0  0  0  0  0  0  0
    7.9262   -0.3309    0.0000 H   0  0  0  0  0  0  0  0  0  0  0  0
   10.6800    0.7601    0.0000 H   0  0  0  0  0  0  0  0  0  0  0  0
    8.6538    1.3341    0.0000 H   0  0  0  0  0  0  0  0  0  0  0  0
    7.8567    1.3341    0.0000 H   0  0  0  0  0  0  0  0  0  0  0  0
    9.8164   -1.5125    0.0000 H   0  0  0  0  0  0  0  0  0  0  0  0
   10.6049   -1.2548    0.0000 H   0  0  0  0  0  0  0  0  0  0  0  0
    7.1772    0.9418    0.0000 H   0  0  0  0  0  0  0  0  0  0  0  0
    6.7786    0.2515    0.0000 H   0  0  0  0  0  0  0  0  0  0  0  0
   11.1120   -0.5556    0.0000 H   0  0  0  0  0  0  0  0  0  0  0  0
   11.1120    0.2739    0.0000 H   0  0  0  0  0  0  0  0  0  0  0  0
    8.2773   -2.8023    0.0000 H   0  0  0  0  0  0  0  0  0  0  0  0
   10.5708    2.2037    0.0000 H   0  0  0  0  0  0  0  0  0  0  0  0
    9.7413    1.3592    0.0000 H   0  0  0  0  0  0  0  0  0  0  0  0
    9.1213    1.9792    0.0000 H   0  0  0  0  0  0  0  0  0  0  0  0
    8.5013    1.3592    0.0000 H   0  0  0  0  0  0  0  0  0  0  0  0
    5.9606   -0.1170    0.0000 H   0  0  0  0  0  0  0  0  0  0  0  0
    5.1625   -0.1016    0.0000 H   0  0  0  0  0  0  0  0  0  0  0  0
    7.3756   -3.3301    0.0000 H   0  0  0  0  0  0  0  0  0  0  0  0
    7.1069   -0.1525    0.0000 H   0  0  0  0  0  0  0  0  0  0  0  0
    6.4917    0.4723    0.0000 H   0  0  0  0  0  0  0  0  0  0  0  0
    5.8669   -0.1429    0.0000 H   0  0  0  0  0  0  0  0  0  0  0  0
    5.1385   -3.2150    0.0000 H   0  0  0  0  0  0  0  0  0  0  0  0
    5.9367   -3.2119    0.0000 H   0  0  0  0  0  0  0  0  0  0  0  0
    4.3999   -0.5263    0.0000 H   0  0  0  0  0  0  0  0  0  0  0  0
    3.9928   -1.2129    0.0000 H   0  0  0  0  0  0  0  0  0  0  0  0
    4.5949   -2.8165    0.0000 H   0  0  0  0  0  0  0  0  0  0  0  0
   11.3772    1.2010    0.0000 H   0  0  0  0  0  0  0  0  0  0  0  0
   11.9705    1.7333    0.0000 H   0  0  0  0  0  0  0  0  0  0  0  0
   10.1718    2.7728    0.0000 H   0  0  0  0  0  0  0  0  0  0  0  0
    9.2962    2.8202    0.0000 H   0  0  0  0  0  0  0  0  0  0  0  0
    9.2488    1.9446    0.0000 H   0  0  0  0  0  0  0  0  0  0  0  0
   11.6468    3.3908    0.0000 H   0  0  0  0  0  0  0  0  0  0  0  0
   11.0535    2.8585    0.0000 H   0  0  0  0  0  0  0  0  0  0  0  0
   12.6664    2.3577    0.0000 H   0  0  0  0  0  0  0  0  0  0  0  0
   13.2596    2.8900    0.0000 H   0  0  0  0  0  0  0  0  0  0  0  0
    8.5462   -4.6794    0.0000 H   0  0  0  0  0  0  0  0  0  0  0  0
    9.1733   -5.2921    0.0000 H   0  0  0  0  0  0  0  0  0  0  0  0
    9.7861   -4.6650    0.0000 H   0  0  0  0  0  0  0  0  0  0  0  0
   10.1617   -4.2806    0.0000 H   0  0  0  0  0  0  0  0  0  0  0  0
   10.7745   -3.6535    0.0000 H   0  0  0  0  0  0  0  0  0  0  0  0
   10.1474   -3.0407    0.0000 H   0  0  0  0  0  0  0  0  0  0  0  0
    8.1475   -3.0638    0.0000 H   0  0  0  0  0  0  0  0  0  0  0  0
    7.5347   -3.6910    0.0000 H   0  0  0  0  0  0  0  0  0  0  0  0
    8.1618   -4.3038    0.0000 H   0  0  0  0  0  0  0  0  0  0  0  0
   13.3705    3.4664    0.0000 H   0  0  0  0  0  0  0  0  0  0  0  0
    2.3121   -1.1508    0.0000 H   0  0  0  0  0  0  0  0  0  0  0  0
    1.4643   -1.3744    0.0000 H   0  0  0  0  0  0  0  0  0  0  0  0
    1.6879   -2.2222    0.0000 H   0  0  0  0  0  0  0  0  0  0  0  0
    1.8250   -2.7419    0.0000 H   0  0  0  0  0  0  0  0  0  0  0  0
    2.0487   -3.5897    0.0000 H   0  0  0  0  0  0  0  0  0  0  0  0
    2.8965   -3.3660    0.0000 H   0  0  0  0  0  0  0  0  0  0  0  0
    3.9032   -1.6378    0.0000 H   0  0  0  0  0  0  0  0  0  0  0  0
    3.6795   -0.7900    0.0000 H   0  0  0  0  0  0  0  0  0  0  0  0
    2.8317   -1.0137    0.0000 H   0  0  0  0  0  0  0  0  0  0  0  0
   14.0628    3.5274    0.0000 H   0  0  0  0  0  0  0  0  0  0  0  0
   14.5417    4.2620    0.0000 H   0  0  0  0  0  0  0  0  0  0  0  0
   13.8071    4.7408    0.0000 H   0  0  0  0  0  0  0  0  0  0  0  0
   12.7501    5.0862    0.0000 H   0  0  0  0  0  0  0  0  0  0  0  0
   11.8746    5.1336    0.0000 H   0  0  0  0  0  0  0  0  0  0  0  0
   11.8272    4.2581    0.0000 H   0  0  0  0  0  0  0  0  0  0  0  0
  1  3  1  0  0  0  0
  1 29  1  0  0  0  0
  1 30  1  0  0  0  0
  1 31  1  0  0  0  0
  2  4  1  0  0  0  0
  2 33  1  0  0  0  0
  2 34  1  0  0  0  0
  2 35  1  0  0  0  0
  3 15  1  0  0  0  0
  4 24  1  0  0  0  0
  5  6  1  0  0  0  0
  5  9  1  0  0  0  0
  5 10  1  0  0  0  0
  5 17  1  0  0  0  0
  6  7  1  0  0  0  0
  6 12  1  0  0  0  0
  6 38  1  0  0  0  0
  7  8  1  0  0  0  0
  7 15  1  0  0  0  0
  7 39  1  0  0  0  0
  8 11  1  0  0  0  0
  8 13  1  0  0  0  0
  8 40  1  0  0  0  0
  9 14  1  0  0  0  0
  9 16  1  0  0  0  0
  9 41  1  0  0  0  0
 10 13  1  0  0  0  0
 10 42  1  0  0  0  0
 10 43  1  0  0  0  0
 11 18  1  0  0  0  0
 11 19  1  0  0  0  0
 11 21  1  0  0  0  0
 12 14  1  0  0  0  0
 12 44  1  0  0  0  0
 12 45  1  0  0  0  0
 13 46  1  0  0  0  0
 13 47  1  0  0  0  0
 14 48  1  0  0  0  0
 14 49  1  0  0  0  0
 15 20  1  0  0  0  0
 15 50  1  0  0  0  0
 16 25  1  0  0  0  0
 16 26  1  0  0  0  0
 16 51  1  0  0  0  0
 17 52  1  0  0  0  0
 17 53  1  0  0  0  0
 17 54  1  0  0  0  0
 18 20  2  0  0  0  0
 18 22  1  0  0  0  0
 19 23  1  0  0  0  0
 19 55  1  0  0  0  0
 19 56  1  0  0  0  0
 20 57  1  0  0  0  0
 21 58  1  0  0  0  0
 21 59  1  0  0  0  0
 21 60  1  0  0  0  0
 22 24  1  0  0  0  0
 22 61  1  0  0  0  0
 22 62  1  0  0  0  0
 23 24  1  0  0  0  0
 23 63  1  0  0  0  0
 23 64  1  0  0  0  0
 24 65  1  0  0  0  0
 25 27  1  0  0  0  0
 25 66  1  0  0  0  0
 25 67  1  0  0  0  0
 26 68  1  0  0  0  0
 26 69  1  0  0  0  0
 26 70  1  0  0  0  0
 27 28  1  0  0  0  0
 27 71  1  0  0  0  0
 27 72  1  0  0  0  0
 28 32  1  0  0  0  0
 28 73  1  0  0  0  0
 28 74  1  0  0  0  0
 29 75  1  0  0  0  0
 29 76  1  0  0  0  0
 29 77  1  0  0  0  0
 30 78  1  0  0  0  0
 30 79  1  0  0  0  0
 30 80  1  0  0  0  0
 31 81  1  0  0  0  0
 31 82  1  0  0  0  0
 31 83  1  0  0  0  0
 32 36  1  0  0  0  0
 32 37  1  0  0  0  0
 32 84  1  0  0  0  0
 33 85  1  0  0  0  0
 33 86  1  0  0  0  0
 33 87  1  0  0  0  0
 34 88  1  0  0  0  0
 34 89  1  0  0  0  0
 34 90  1  0  0  0  0
 35 91  1  0  0  0  0
 35 92  1  0  0  0  0
 35 93  1  0  0  0  0
 36 94  1  0  0  0  0
 36 95  1  0  0  0  0
 36 96  1  0  0  0  0
 37 97  1  0  0  0  0
 37 98  1  0  0  0  0
 37 99  1  0  0  0  0
M  END
> <PUBCHEM_COMPOUND_CID>
526516
> <PUBCHEM_COMPOUND_CANONICALIZED>
1
> <PUBCHEM_CACTVS_COMPLEXITY>
823
> <PUBCHEM_CACTVS_HBOND_ACCEPTOR>
2
> <PUBCHEM_CACTVS_HBOND_DONOR>
0
> <PUBCHEM_CACTVS_ROTATABLE_BOND>
9
> <PUBCHEM_CACTVS_SUBSKEYS>
AAADcfB8MAwAAAAAAAAAAAAAAAAAAYAAAAAwYIAAAAAAAGCAAAAAGhAAAEAADxSggAJCAAAAAAGAAiBCAAAAAAAgAAAACAAAAAgABAIAAQAAEAAEwAAIAAOAwPAPgAAAAAAAAADAAAQAACAAAQAACAAAAA==
> <PUBCHEM_IUPAC_OPENEYE_NAME>
[17-(1,5-dimethylhexyl)-10,13-dimethyl-3-trimethylsilyloxy-2,3,4,7,8,9,11,12,14,15,16,17-dodecahydro-1H-cyclopenta[a]phenanthren-7-yl]oxy-trimethyl-silane
> <PUBCHEM_IUPAC_CAS_NAME>
[10,13-dimethyl-17-(6-methylheptan-2-yl)-3-trimethylsilyloxy-2,3,4,7,8,9,11,12,14,15,16,17-dodecahydro-1H-cyclopenta[a]phenanthren-7-yl]oxy-trimethylsilane
> <PUBCHEM_IUPAC_NAME_MARKUP>
[10,13-dimethyl-17-(6-methylheptan-2-yl)-3-trimethylsilyloxy-2,3,4,7,8,9,11,12,14,15,16,17-dodecahydro-1<I>H</I>-cyclopenta[a]phenanthren-7-yl]oxy-trimethylsilane
> <PUBCHEM_IUPAC_NAME>
[10,13-dimethyl-17-(6-methylheptan-2-yl)-3-trimethylsilyloxy-2,3,4,7,8,9,11,12,14,15,16,17-dodecahydro-1H-cyclopenta[a]phenanthren-7-yl]oxy-trimethylsilane
> <PUBCHEM_IUPAC_SYSTEMATIC_NAME>
[10,13-dimethyl-17-(6-methylheptan-2-yl)-3-trimethylsilyloxy-2,3,4,7,8,9,11,12,14,15,16,17-dodecahydro-1H-cyclopenta[a]phenanthren-7-yl]oxy-trimethyl-silane
> <PUBCHEM_IUPAC_TRADITIONAL_NAME>
[17-(1,5-dimethylhexyl)-10,13-dimethyl-3-trimethylsilyloxy-2,3,4,7,8,9,11,12,14,15,16,17-dodecahydro-1H-cyclopenta[a]phenanthren-7-yl]oxy-trimethyl-silane
> <PUBCHEM_IUPAC_INCHI>
InChI=1S/C33H62O2Si2/c1-23(2)13-12-14-24(3)27-15-16-28-31-29(18-20-33(27,28)5)32(4)19-17-26(34-36(6,7)8)21-25(32)22-30(31)35-37(9,10)11/h22-24,26-31H,12-21H2,1-11H3
> <PUBCHEM_IUPAC_INCHIKEY>
OOKKWPKBWGMRMW-UHFFFAOYSA-N
> <PUBCHEM_EXACT_MASS>
546.42883429
> <PUBCHEM_MOLECULAR_FORMULA>
C33H62O2Si2
> <PUBCHEM_MOLECULAR_WEIGHT>
547.0
> <PUBCHEM_OPENEYE_CAN_SMILES>
CC(C)CCCC(C)C1CCC2C1(CCC3C2C(C=C4C3(CCC(C4)O[Si](C)(C)C)C)O[Si](C)(C)C)C
> <PUBCHEM_OPENEYE_ISO_SMILES>
CC(C)CCCC(C)C1CCC2C1(CCC3C2C(C=C4C3(CCC(C4)O[Si](C)(C)C)C)O[Si](C)(C)C)C
> <PUBCHEM_CACTVS_TPSA>
18.5
> <PUBCHEM_MONOISOTOPIC_WEIGHT>
546.42883429
> <PUBCHEM_TOTAL_CHARGE>
0
> <PUBCHEM_HEAVY_ATOM_COUNT>
37
> <PUBCHEM_ATOM_DEF_STEREO_COUNT>
0
> <PUBCHEM_ATOM_UDEF_STEREO_COUNT>
9
> <PUBCHEM_BOND_DEF_STEREO_COUNT>
0
> <PUBCHEM_BOND_UDEF_STEREO_COUNT>
0
> <PUBCHEM_ISOTOPIC_ATOM_COUNT>
0
> <PUBCHEM_COMPONENT_COUNT>
1
> <PUBCHEM_CACTVS_TAUTO_COUNT>
-1
> <PUBCHEM_COORDINATE_TYPE>
1
5
255
> <PUBCHEM_BONDANNOTATIONS>
11  21  3
16  26  3
15  3  3
24  4  3
5  17  3
6  12  3
7  15  3
8  13  3
9  14  3
$$$$
