526596
  -OEChem-10302200292D
 56 60  0     1  0  0  0  0  0999 V2000
    4.8666   -1.8624    0.0000 C   0  0  3  0  0  0  0  0  0  0  0  0
    4.8746   -0.8208    0.0000 C   0  0  3  0  0  0  0  0  0  0  0  0
    2.9999   -0.7846    0.0000 C   0  0  0  0  0  0  0  0  0  0  0  0
    3.9478   -0.2567    0.0000 C   0  0  0  0  0  0  0  0  0  0  0  0
    3.9312   -2.4121    0.0000 C   0  0  0  0  0  0  0  0  0  0  0  0
    2.9916   -1.8696    0.0000 C   0  0  0  0  0  0  0  0  0  0  0  0
    5.7687   -2.3832    0.0000 C   0  0  0  0  0  0  0  0  0  0  0  0
    5.7847   -0.3139    0.0000 C   0  0  0  0  0  0  0  0  0  0  0  0
    4.8589   -2.8624    0.0000 C   0  0  0  0  0  0  0  0  0  0  0  0
    6.6667   -1.8554    0.0000 C   0  0  0  0  0  0  0  0  0  0  0  0
    6.6507   -0.8139    0.0000 C   0  0  0  0  0  0  0  0  0  0  0  0
    2.0000   -0.7731    0.0000 C   0  0  0  0  0  0  0  0  0  0  0  0
    2.5100    0.0871    0.0000 C   0  0  0  0  0  0  0  0  0  0  0  0
    5.7847    0.6861    0.0000 C   0  0  0  0  0  0  0  0  0  0  0  0
    7.5167   -0.3139    0.0000 C   0  0  0  0  0  0  0  0  0  0  0  0
    7.5167    0.6861    0.0000 C   0  0  0  0  0  0  0  0  0  0  0  0
    6.6507    1.1861    0.0000 C   0  0  0  0  0  0  0  0  0  0  0  0
    8.4106   -0.8486    0.0000 C   0  0  0  0  0  0  0  0  0  0  0  0
    8.4106    1.2207    0.0000 C   0  0  0  0  0  0  0  0  0  0  0  0
    9.3167    0.7069    0.0000 C   0  0  0  0  0  0  0  0  0  0  0  0
    9.3167   -0.3348    0.0000 C   0  0  0  0  0  0  0  0  0  0  0  0
    8.3856    2.3054    0.0000 C   0  0  0  0  0  0  0  0  0  0  0  0
   10.2605    1.2421    0.0000 C   0  0  0  0  0  0  0  0  0  0  0  0
    9.3167    2.8624    0.0000 C   0  0  0  0  0  0  0  0  0  0  0  0
   10.2605    2.3271    0.0000 C   0  0  0  0  0  0  0  0  0  0  0  0
   11.1246    0.7388    0.0000 C   0  0  0  0  0  0  0  0  0  0  0  0
    4.8866   -0.2009    0.0000 H   0  0  0  0  0  0  0  0  0  0  0  0
    4.3560    0.2100    0.0000 H   0  0  0  0  0  0  0  0  0  0  0  0
    3.5579    0.2253    0.0000 H   0  0  0  0  0  0  0  0  0  0  0  0
    3.5339   -2.8881    0.0000 H   0  0  0  0  0  0  0  0  0  0  0  0
    4.3322   -2.8850    0.0000 H   0  0  0  0  0  0  0  0  0  0  0  0
    2.3816   -1.7588    0.0000 H   0  0  0  0  0  0  0  0  0  0  0  0
    2.7780   -2.4517    0.0000 H   0  0  0  0  0  0  0  0  0  0  0  0
    5.3714   -2.8592    0.0000 H   0  0  0  0  0  0  0  0  0  0  0  0
    6.1697   -2.8561    0.0000 H   0  0  0  0  0  0  0  0  0  0  0  0
    4.2389   -2.8576    0.0000 H   0  0  0  0  0  0  0  0  0  0  0  0
    4.8541   -3.4823    0.0000 H   0  0  0  0  0  0  0  0  0  0  0  0
    5.4789   -2.8671    0.0000 H   0  0  0  0  0  0  0  0  0  0  0  0
    6.8848   -2.4358    0.0000 H   0  0  0  0  0  0  0  0  0  0  0  0
    7.2759   -1.7399    0.0000 H   0  0  0  0  0  0  0  0  0  0  0  0
    2.0072   -0.1531    0.0000 H   0  0  0  0  0  0  0  0  0  0  0  0
    1.3800   -0.7659    0.0000 H   0  0  0  0  0  0  0  0  0  0  0  0
    1.9928   -1.3930    0.0000 H   0  0  0  0  0  0  0  0  0  0  0  0
    3.0505    0.3909    0.0000 H   0  0  0  0  0  0  0  0  0  0  0  0
    2.2062    0.6276    0.0000 H   0  0  0  0  0  0  0  0  0  0  0  0
    1.9695   -0.2167    0.0000 H   0  0  0  0  0  0  0  0  0  0  0  0
    5.2477    0.9961    0.0000 H   0  0  0  0  0  0  0  0  0  0  0  0
    6.6507    1.8061    0.0000 H   0  0  0  0  0  0  0  0  0  0  0  0
    8.4035   -1.4686    0.0000 H   0  0  0  0  0  0  0  0  0  0  0  0
    9.8524   -0.6468    0.0000 H   0  0  0  0  0  0  0  0  0  0  0  0
    7.8428    2.6050    0.0000 H   0  0  0  0  0  0  0  0  0  0  0  0
    9.3096    3.4823    0.0000 H   0  0  0  0  0  0  0  0  0  0  0  0
   10.7962    2.6392    0.0000 H   0  0  0  0  0  0  0  0  0  0  0  0
   10.8125    0.2030    0.0000 H   0  0  0  0  0  0  0  0  0  0  0  0
   11.6603    0.4267    0.0000 H   0  0  0  0  0  0  0  0  0  0  0  0
   11.4367    1.2745    0.0000 H   0  0  0  0  0  0  0  0  0  0  0  0
  1  2  1  0  0  0  0
  1  5  1  0  0  0  0
  1  7  1  0  0  0  0
  1  9  1  0  0  0  0
  2  4  1  0  0  0  0
  2  8  1  0  0  0  0
  2 27  1  0  0  0  0
  3  4  1  0  0  0  0
  3  6  1  0  0  0  0
  3 12  1  0  0  0  0
  3 13  1  0  0  0  0
  4 28  1  0  0  0  0
  4 29  1  0  0  0  0
  5  6  1  0  0  0  0
  5 30  1  0  0  0  0
  5 31  1  0  0  0  0
  6 32  1  0  0  0  0
  6 33  1  0  0  0  0
  7 10  1  0  0  0  0
  7 34  1  0  0  0  0
  7 35  1  0  0  0  0
  8 11  2  0  0  0  0
  8 14  1  0  0  0  0
  9 36  1  0  0  0  0
  9 37  1  0  0  0  0
  9 38  1  0  0  0  0
 10 11  1  0  0  0  0
 10 39  1  0  0  0  0
 10 40  1  0  0  0  0
 11 15  1  0  0  0  0
 12 41  1  0  0  0  0
 12 42  1  0  0  0  0
 12 43  1  0  0  0  0
 13 44  1  0  0  0  0
 13 45  1  0  0  0  0
 13 46  1  0  0  0  0
 14 17  2  0  0  0  0
 14 47  1  0  0  0  0
 15 16  2  0  0  0  0
 15 18  1  0  0  0  0
 16 17  1  0  0  0  0
 16 19  1  0  0  0  0
 17 48  1  0  0  0  0
 18 21  2  0  0  0  0
 18 49  1  0  0  0  0
 19 20  1  0  0  0  0
 19 22  2  0  0  0  0
 20 21  1  0  0  0  0
 20 23  2  0  0  0  0
 21 50  1  0  0  0  0
 22 24  1  0  0  0  0
 22 51  1  0  0  0  0
 23 25  1  0  0  0  0
 23 26  1  0  0  0  0
 24 25  2  0  0  0  0
 24 52  1  0  0  0  0
 25 53  1  0  0  0  0
 26 54  1  0  0  0  0
 26 55  1  0  0  0  0
 26 56  1  0  0  0  0
M  END
> <PUBCHEM_COMPOUND_CID>
526596
> <PUBCHEM_COMPOUND_CANONICALIZED>
1
> <PUBCHEM_CACTVS_COMPLEXITY>
532
> <PUBCHEM_CACTVS_HBOND_ACCEPTOR>
0
> <PUBCHEM_CACTVS_HBOND_DONOR>
0
> <PUBCHEM_CACTVS_ROTATABLE_BOND>
0
> <PUBCHEM_CACTVS_SUBSKEYS>
AAADceB4AAAAAAAAAAAAAAAAAAAAAAAAAAAwYMGDAAAAAADBVAAAGAAAAAAADwCAGAAyAMAAAACAAiBCAAACAAAgAAAIiAAAAIgIICKAERCAIAAggAAIiAcAgMAPwAACAAAQAACAAAQAACAAAAAAAAAAAA==
> <PUBCHEM_IUPAC_OPENEYE_NAME>
2,2,4a,9-tetramethyl-1,3,4,5,6,14b-hexahydropicene
> <PUBCHEM_IUPAC_CAS_NAME>
2,2,4a,9-tetramethyl-1,3,4,5,6,14b-hexahydropicene
> <PUBCHEM_IUPAC_NAME_MARKUP>
2,2,4<I>a</I>,9-tetramethyl-1,3,4,5,6,14<I>b</I>-hexahydropicene
> <PUBCHEM_IUPAC_NAME>
2,2,4a,9-tetramethyl-1,3,4,5,6,14b-hexahydropicene
> <PUBCHEM_IUPAC_SYSTEMATIC_NAME>
2,2,4a,9-tetramethyl-1,3,4,5,6,14b-hexahydropicene
> <PUBCHEM_IUPAC_TRADITIONAL_NAME>
2,2,4a,9-tetramethyl-1,3,4,5,6,14b-hexahydropicene
> <PUBCHEM_IUPAC_INCHI>
InChI=1S/C26H30/c1-17-6-5-7-19-18(17)8-9-21-20(19)10-11-23-22(21)12-13-26(4)15-14-25(2,3)16-24(23)26/h5-11,24H,12-16H2,1-4H3
> <PUBCHEM_IUPAC_INCHIKEY>
IULDSGKUIIHKAN-UHFFFAOYSA-N
> <PUBCHEM_XLOGP3_AA>
8.7
> <PUBCHEM_EXACT_MASS>
342.234750957
> <PUBCHEM_MOLECULAR_FORMULA>
C26H30
> <PUBCHEM_MOLECULAR_WEIGHT>
342.5
> <PUBCHEM_OPENEYE_CAN_SMILES>
CC1=C2C=CC3=C(C2=CC=C1)C=CC4=C3CCC5(C4CC(CC5)(C)C)C
> <PUBCHEM_OPENEYE_ISO_SMILES>
CC1=C2C=CC3=C(C2=CC=C1)C=CC4=C3CCC5(C4CC(CC5)(C)C)C
> <PUBCHEM_CACTVS_TPSA>
0
> <PUBCHEM_MONOISOTOPIC_WEIGHT>
342.234750957
> <PUBCHEM_TOTAL_CHARGE>
0
> <PUBCHEM_HEAVY_ATOM_COUNT>
26
> <PUBCHEM_ATOM_DEF_STEREO_COUNT>
0
> <PUBCHEM_ATOM_UDEF_STEREO_COUNT>
2
> <PUBCHEM_BOND_DEF_STEREO_COUNT>
0
> <PUBCHEM_BOND_UDEF_STEREO_COUNT>
0
> <PUBCHEM_ISOTOPIC_ATOM_COUNT>
0
> <PUBCHEM_COMPONENT_COUNT>
1
> <PUBCHEM_CACTVS_TAUTO_COUNT>
-1
> <PUBCHEM_COORDINATE_TYPE>
1
5
255
> <PUBCHEM_BONDANNOTATIONS>
1  9  3
11  15  8
14  17  8
15  16  8
15  18  8
16  17  8
16  19  8
18  21  8
19  20  8
19  22  8
2  4  3
20  21  8
20  23  8
22  24  8
23  25  8
24  25  8
8  11  8
8  14  8
$$$$
