526509
  -OEChem-10302200292D
 23 22  0     1  0  0  0  0  0999 V2000
    3.7320   -1.0000    0.0000 S   0  0  0  0  0  0  0  0  0  0  0  0
    2.0000   -0.0000    0.0000 S   0  0  0  0  0  0  0  0  0  0  0  0
    6.3301    0.5000    0.0000 O   0  0  0  0  0  0  0  0  0  0  0  0
    5.4641    2.0000    0.0000 O   0  0  0  0  0  0  0  0  0  0  0  0
    3.7320    1.0000    0.0000 N   0  0  0  0  0  0  0  0  0  0  0  0
    4.5981    0.5000    0.0000 C   0  0  3  0  0  0  0  0  0  0  0  0
    4.5981   -0.5000    0.0000 C   0  0  0  0  0  0  0  0  0  0  0  0
    5.4641    1.0000    0.0000 C   0  0  0  0  0  0  0  0  0  0  0  0
    7.1962    1.0000    0.0000 C   0  0  0  0  0  0  0  0  0  0  0  0
    8.0622    0.5000    0.0000 C   0  0  0  0  0  0  0  0  0  0  0  0
    3.7320   -2.0000    0.0000 C   0  0  0  0  0  0  0  0  0  0  0  0
    2.8660    0.5000    0.0000 C   0  0  0  0  0  0  0  0  0  0  0  0
    4.5981    1.1200    0.0000 H   0  0  0  0  0  0  0  0  0  0  0  0
    4.8101   -1.0826    0.0000 H   0  0  0  0  0  0  0  0  0  0  0  0
    5.2087   -0.3923    0.0000 H   0  0  0  0  0  0  0  0  0  0  0  0
    7.5947    1.4750    0.0000 H   0  0  0  0  0  0  0  0  0  0  0  0
    6.7976    1.4750    0.0000 H   0  0  0  0  0  0  0  0  0  0  0  0
    7.7522   -0.0369    0.0000 H   0  0  0  0  0  0  0  0  0  0  0  0
    8.5991    0.1900    0.0000 H   0  0  0  0  0  0  0  0  0  0  0  0
    8.3722    1.0369    0.0000 H   0  0  0  0  0  0  0  0  0  0  0  0
    3.1120   -2.0000    0.0000 H   0  0  0  0  0  0  0  0  0  0  0  0
    3.7320   -2.6200    0.0000 H   0  0  0  0  0  0  0  0  0  0  0  0
    4.3520   -2.0000    0.0000 H   0  0  0  0  0  0  0  0  0  0  0  0
  1  7  1  0  0  0  0
  1 11  1  0  0  0  0
  2 12  2  0  0  0  0
  3  8  1  0  0  0  0
  3  9  1  0  0  0  0
  4  8  2  0  0  0  0
  5  6  1  0  0  0  0
  5 12  2  0  0  0  0
  6  7  1  0  0  0  0
  6  8  1  0  0  0  0
  6 13  1  0  0  0  0
  7 14  1  0  0  0  0
  7 15  1  0  0  0  0
  9 10  1  0  0  0  0
  9 16  1  0  0  0  0
  9 17  1  0  0  0  0
 10 18  1  0  0  0  0
 10 19  1  0  0  0  0
 10 20  1  0  0  0  0
 11 21  1  0  0  0  0
 11 22  1  0  0  0  0
 11 23  1  0  0  0  0
M  END
> <PUBCHEM_COMPOUND_CID>
526509
> <PUBCHEM_COMPOUND_CANONICALIZED>
1
> <PUBCHEM_CACTVS_COMPLEXITY>
190
> <PUBCHEM_CACTVS_HBOND_ACCEPTOR>
5
> <PUBCHEM_CACTVS_HBOND_DONOR>
0
> <PUBCHEM_CACTVS_ROTATABLE_BOND>
6
> <PUBCHEM_CACTVS_SUBSKEYS>
AAADccBiMABgAAAAAAAAAAAAAAAAAAAAAAAAAAAAAAAAAAAAAAAAHgQAAAAACCjlwAaCCAIABAgsAACQDAAAAAAAABAAAAGAAAACAAAgAAADAAAAAAAAAAAAAAAAAAAAAAAAAAAAAAAAAAAAAAAAAAAAAA==
> <PUBCHEM_IUPAC_OPENEYE_NAME>
ethyl 2-isothiocyanato-3-methylsulfanyl-propanoate
> <PUBCHEM_IUPAC_CAS_NAME>
2-isothiocyanato-3-(methylthio)propanoic acid ethyl ester
> <PUBCHEM_IUPAC_NAME_MARKUP>
ethyl 2-isothiocyanato-3-methylsulfanylpropanoate
> <PUBCHEM_IUPAC_NAME>
ethyl 2-isothiocyanato-3-methylsulfanylpropanoate
> <PUBCHEM_IUPAC_SYSTEMATIC_NAME>
ethyl 2-isothiocyanato-3-methylsulfanyl-propanoate
> <PUBCHEM_IUPAC_TRADITIONAL_NAME>
2-isothiocyanato-3-(methylthio)propionic acid ethyl ester
> <PUBCHEM_IUPAC_INCHI>
InChI=1S/C7H11NO2S2/c1-3-10-7(9)6(4-12-2)8-5-11/h6H,3-4H2,1-2H3
> <PUBCHEM_IUPAC_INCHIKEY>
LNIKMLXQQRUFGX-UHFFFAOYSA-N
> <PUBCHEM_XLOGP3_AA>
2.7
> <PUBCHEM_EXACT_MASS>
205.02312094
> <PUBCHEM_MOLECULAR_FORMULA>
C7H11NO2S2
> <PUBCHEM_MOLECULAR_WEIGHT>
205.3
> <PUBCHEM_OPENEYE_CAN_SMILES>
CCOC(=O)C(CSC)N=C=S
> <PUBCHEM_OPENEYE_ISO_SMILES>
CCOC(=O)C(CSC)N=C=S
> <PUBCHEM_CACTVS_TPSA>
96
> <PUBCHEM_MONOISOTOPIC_WEIGHT>
205.02312094
> <PUBCHEM_TOTAL_CHARGE>
0
> <PUBCHEM_HEAVY_ATOM_COUNT>
12
> <PUBCHEM_ATOM_DEF_STEREO_COUNT>
0
> <PUBCHEM_ATOM_UDEF_STEREO_COUNT>
1
> <PUBCHEM_BOND_DEF_STEREO_COUNT>
0
> <PUBCHEM_BOND_UDEF_STEREO_COUNT>
0
> <PUBCHEM_ISOTOPIC_ATOM_COUNT>
0
> <PUBCHEM_COMPONENT_COUNT>
1
> <PUBCHEM_CACTVS_TAUTO_COUNT>
-1
> <PUBCHEM_COORDINATE_TYPE>
1
5
255
> <PUBCHEM_BONDANNOTATIONS>
6  7  3
$$$$
