526598
  -OEChem-10302200292D
 41 41  0     1  0  0  0  0  0999 V2000
    5.4641   -1.0000    0.0000 O   0  0  0  0  0  0  0  0  0  0  0  0
    3.7320    1.0000    0.0000 O   0  0  0  0  0  0  0  0  0  0  0  0
    5.4641    2.0000    0.0000 O   0  0  0  0  0  0  0  0  0  0  0  0
    7.1962    1.0000    0.0000 O   0  0  0  0  0  0  0  0  0  0  0  0
    3.7320   -2.0000    0.0000 O   0  0  0  0  0  0  0  0  0  0  0  0
    7.1962    2.0000    0.0000 O   0  0  0  0  0  0  0  0  0  0  0  0
    8.0622   -0.5000    0.0000 O   0  0  0  0  0  0  0  0  0  0  0  0
    2.0000   -2.0000    0.0000 O   0  0  0  0  0  0  0  0  0  0  0  0
    4.5981    0.5000    0.0000 C   0  0  3  0  0  0  0  0  0  0  0  0
    5.4641    1.0000    0.0000 C   0  0  3  0  0  0  0  0  0  0  0  0
    4.5981   -0.5000    0.0000 C   0  0  3  0  0  0  0  0  0  0  0  0
    6.3301    0.5000    0.0000 C   0  0  3  0  0  0  0  0  0  0  0  0
    6.3301   -0.5000    0.0000 C   0  0  0  0  0  0  0  0  0  0  0  0
    3.7320   -1.0000    0.0000 C   0  0  0  0  0  0  0  0  0  0  0  0
    2.8660    0.5000    0.0000 C   0  0  0  0  0  0  0  0  0  0  0  0
    6.3301    2.5000    0.0000 C   0  0  0  0  0  0  0  0  0  0  0  0
    8.0622    0.5000    0.0000 C   0  0  0  0  0  0  0  0  0  0  0  0
    6.3301    3.5000    0.0000 C   0  0  0  0  0  0  0  0  0  0  0  0
    2.8660   -2.5000    0.0000 C   0  0  0  0  0  0  0  0  0  0  0  0
    8.9282    1.0000    0.0000 C   0  0  0  0  0  0  0  0  0  0  0  0
    2.8660   -3.5000    0.0000 C   0  0  0  0  0  0  0  0  0  0  0  0
    4.5981    1.1200    0.0000 H   0  0  0  0  0  0  0  0  0  0  0  0
    6.0010    1.3100    0.0000 H   0  0  0  0  0  0  0  0  0  0  0  0
    4.5981   -1.1200    0.0000 H   0  0  0  0  0  0  0  0  0  0  0  0
    6.8671    0.1900    0.0000 H   0  0  0  0  0  0  0  0  0  0  0  0
    6.5422   -1.0826    0.0000 H   0  0  0  0  0  0  0  0  0  0  0  0
    6.9407   -0.3923    0.0000 H   0  0  0  0  0  0  0  0  0  0  0  0
    3.5200   -0.4174    0.0000 H   0  0  0  0  0  0  0  0  0  0  0  0
    3.1215   -1.1077    0.0000 H   0  0  0  0  0  0  0  0  0  0  0  0
    2.5560    1.0369    0.0000 H   0  0  0  0  0  0  0  0  0  0  0  0
    2.3291    0.1900    0.0000 H   0  0  0  0  0  0  0  0  0  0  0  0
    3.1760   -0.0369    0.0000 H   0  0  0  0  0  0  0  0  0  0  0  0
    6.9501    3.5000    0.0000 H   0  0  0  0  0  0  0  0  0  0  0  0
    6.3301    4.1200    0.0000 H   0  0  0  0  0  0  0  0  0  0  0  0
    5.7101    3.5000    0.0000 H   0  0  0  0  0  0  0  0  0  0  0  0
    9.2382    0.4631    0.0000 H   0  0  0  0  0  0  0  0  0  0  0  0
    9.4651    1.3100    0.0000 H   0  0  0  0  0  0  0  0  0  0  0  0
    8.6182    1.5369    0.0000 H   0  0  0  0  0  0  0  0  0  0  0  0
    2.2460   -3.5000    0.0000 H   0  0  0  0  0  0  0  0  0  0  0  0
    2.8660   -4.1200    0.0000 H   0  0  0  0  0  0  0  0  0  0  0  0
    3.4860   -3.5000    0.0000 H   0  0  0  0  0  0  0  0  0  0  0  0
  1 11  1  0  0  0  0
  1 13  1  0  0  0  0
  2  9  1  0  0  0  0
  2 15  1  0  0  0  0
  3 10  1  0  0  0  0
  3 16  1  0  0  0  0
  4 12  1  0  0  0  0
  4 17  1  0  0  0  0
  5 14  1  0  0  0  0
  5 19  1  0  0  0  0
  6 16  2  0  0  0  0
  7 17  2  0  0  0  0
  8 19  2  0  0  0  0
  9 10  1  0  0  0  0
  9 11  1  0  0  0  0
  9 22  1  0  0  0  0
 10 12  1  0  0  0  0
 10 23  1  0  0  0  0
 11 14  1  0  0  0  0
 11 24  1  0  0  0  0
 12 13  1  0  0  0  0
 12 25  1  0  0  0  0
 13 26  1  0  0  0  0
 13 27  1  0  0  0  0
 14 28  1  0  0  0  0
 14 29  1  0  0  0  0
 15 30  1  0  0  0  0
 15 31  1  0  0  0  0
 15 32  1  0  0  0  0
 16 18  1  0  0  0  0
 17 20  1  0  0  0  0
 18 33  1  0  0  0  0
 18 34  1  0  0  0  0
 18 35  1  0  0  0  0
 19 21  1  0  0  0  0
 20 36  1  0  0  0  0
 20 37  1  0  0  0  0
 20 38  1  0  0  0  0
 21 39  1  0  0  0  0
 21 40  1  0  0  0  0
 21 41  1  0  0  0  0
M  END
> <PUBCHEM_COMPOUND_CID>
526598
> <PUBCHEM_COMPOUND_CANONICALIZED>
1
> <PUBCHEM_CACTVS_COMPLEXITY>
394
> <PUBCHEM_CACTVS_HBOND_ACCEPTOR>
8
> <PUBCHEM_CACTVS_HBOND_DONOR>
0
> <PUBCHEM_CACTVS_ROTATABLE_BOND>
8
> <PUBCHEM_CACTVS_SUBSKEYS>
AAADceBwPAAAAAAAAAAAAAAAAAAAAAAAAAAkAAAAAAAAAAAAAAAAGgAAAAAACBSggAICCAAABAAIAACQCAAAAAAAAAAAAAAAAAABAAIAAAACAAAFAAACAAHAYAwAAAAAAAAAAAAAAAAAAAAAAAAAAAAAAA==
> <PUBCHEM_IUPAC_OPENEYE_NAME>
(4,5-diacetoxy-3-methoxy-tetrahydropyran-2-yl)methyl acetate
> <PUBCHEM_IUPAC_CAS_NAME>
acetic acid (4,5-diacetyloxy-3-methoxy-2-oxanyl)methyl ester
> <PUBCHEM_IUPAC_NAME_MARKUP>
(4,5-diacetyloxy-3-methoxyoxan-2-yl)methyl acetate
> <PUBCHEM_IUPAC_NAME>
(4,5-diacetyloxy-3-methoxyoxan-2-yl)methyl acetate
> <PUBCHEM_IUPAC_SYSTEMATIC_NAME>
(4,5-diacetyloxy-3-methoxy-oxan-2-yl)methyl ethanoate
> <PUBCHEM_IUPAC_TRADITIONAL_NAME>
acetic acid (4,5-diacetoxy-3-methoxy-tetrahydropyran-2-yl)methyl ester
> <PUBCHEM_IUPAC_INCHI>
InChI=1S/C13H20O8/c1-7(14)18-5-10-12(17-4)13(21-9(3)16)11(6-19-10)20-8(2)15/h10-13H,5-6H2,1-4H3
> <PUBCHEM_IUPAC_INCHIKEY>
ZHUADJSMXLMTKC-UHFFFAOYSA-N
> <PUBCHEM_XLOGP3_AA>
-0.4
> <PUBCHEM_EXACT_MASS>
304.11581759
> <PUBCHEM_MOLECULAR_FORMULA>
C13H20O8
> <PUBCHEM_MOLECULAR_WEIGHT>
304.29
> <PUBCHEM_OPENEYE_CAN_SMILES>
CC(=O)OCC1C(C(C(CO1)OC(=O)C)OC(=O)C)OC
> <PUBCHEM_OPENEYE_ISO_SMILES>
CC(=O)OCC1C(C(C(CO1)OC(=O)C)OC(=O)C)OC
> <PUBCHEM_CACTVS_TPSA>
97.4
> <PUBCHEM_MONOISOTOPIC_WEIGHT>
304.11581759
> <PUBCHEM_TOTAL_CHARGE>
0
> <PUBCHEM_HEAVY_ATOM_COUNT>
21
> <PUBCHEM_ATOM_DEF_STEREO_COUNT>
0
> <PUBCHEM_ATOM_UDEF_STEREO_COUNT>
4
> <PUBCHEM_BOND_DEF_STEREO_COUNT>
0
> <PUBCHEM_BOND_UDEF_STEREO_COUNT>
0
> <PUBCHEM_ISOTOPIC_ATOM_COUNT>
0
> <PUBCHEM_COMPONENT_COUNT>
1
> <PUBCHEM_CACTVS_TAUTO_COUNT>
-1
> <PUBCHEM_COORDINATE_TYPE>
1
5
255
> <PUBCHEM_BONDANNOTATIONS>
11  14  3
9  2  3
10  3  3
12  4  3
$$$$
