526542
  -OEChem-10302200292D
 39 40  0     1  0  0  0  0  0999 V2000
    5.0000    0.0236    0.0000 O   0  0  0  0  0  0  0  0  0  0  0  0
    9.7742    1.9851    0.0000 O   0  0  0  0  0  0  0  0  0  0  0  0
    3.0000    0.0236    0.0000 O   0  0  0  0  0  0  0  0  0  0  0  0
    5.0000   -1.7084    0.0000 O   0  0  0  0  0  0  0  0  0  0  0  0
    7.5388   -0.4764    0.0000 N   0  0  3  0  0  0  0  0  0  0  0  0
    7.5388    0.5236    0.0000 C   0  0  3  0  0  0  0  0  0  0  0  0
    6.5878    0.8327    0.0000 C   0  0  0  0  0  0  0  0  0  0  0  0
    6.0000    0.0236    0.0000 C   0  0  3  0  0  0  0  0  0  0  0  0
    6.5878   -0.7854    0.0000 C   0  0  0  0  0  0  0  0  0  0  0  0
    8.4851    0.8284    0.0000 C   0  0  0  0  0  0  0  0  0  0  0  0
    8.4851   -0.7811    0.0000 C   0  0  0  0  0  0  0  0  0  0  0  0
    9.0687    0.0236    0.0000 C   0  0  0  0  0  0  0  0  0  0  0  0
    8.7957    1.7789    0.0000 C   0  0  0  0  0  0  0  0  0  0  0  0
    4.5000   -0.8424    0.0000 C   0  0  0  0  0  0  0  0  0  0  0  0
    3.5000   -0.8424    0.0000 C   0  0  3  0  0  0  0  0  0  0  0  0
    3.0000   -1.7084    0.0000 C   0  0  0  0  0  0  0  0  0  0  0  0
    2.0000   -1.7084    0.0000 C   0  0  0  0  0  0  0  0  0  0  0  0
    3.5000   -2.5744    0.0000 C   0  0  0  0  0  0  0  0  0  0  0  0
    7.5396    1.1436    0.0000 H   0  0  0  0  0  0  0  0  0  0  0  0
    6.8400    1.3991    0.0000 H   0  0  0  0  0  0  0  0  0  0  0  0
    6.0508    1.1427    0.0000 H   0  0  0  0  0  0  0  0  0  0  0  0
    5.7185    0.5761    0.0000 H   0  0  0  0  0  0  0  0  0  0  0  0
    6.0508   -1.0954    0.0000 H   0  0  0  0  0  0  0  0  0  0  0  0
    6.8400   -1.3518    0.0000 H   0  0  0  0  0  0  0  0  0  0  0  0
    8.2340   -1.3480    0.0000 H   0  0  0  0  0  0  0  0  0  0  0  0
    9.0224   -1.0903    0.0000 H   0  0  0  0  0  0  0  0  0  0  0  0
    9.6887    0.0236    0.0000 H   0  0  0  0  0  0  0  0  0  0  0  0
    8.7752    2.3986    0.0000 H   0  0  0  0  0  0  0  0  0  0  0  0
    8.1819    1.8662    0.0000 H   0  0  0  0  0  0  0  0  0  0  0  0
    3.8100   -0.3054    0.0000 H   0  0  0  0  0  0  0  0  0  0  0  0
    2.6900   -2.2454    0.0000 H   0  0  0  0  0  0  0  0  0  0  0  0
    9.9668    2.5744    0.0000 H   0  0  0  0  0  0  0  0  0  0  0  0
    2.0000   -1.0884    0.0000 H   0  0  0  0  0  0  0  0  0  0  0  0
    1.3800   -1.7084    0.0000 H   0  0  0  0  0  0  0  0  0  0  0  0
    2.0000   -2.3284    0.0000 H   0  0  0  0  0  0  0  0  0  0  0  0
    2.9631   -2.8844    0.0000 H   0  0  0  0  0  0  0  0  0  0  0  0
    3.8100   -3.1114    0.0000 H   0  0  0  0  0  0  0  0  0  0  0  0
    4.0369   -2.2644    0.0000 H   0  0  0  0  0  0  0  0  0  0  0  0
    2.3800    0.0236    0.0000 H   0  0  0  0  0  0  0  0  0  0  0  0
  1  8  1  0  0  0  0
  1 14  1  0  0  0  0
  2 13  1  0  0  0  0
  2 32  1  0  0  0  0
  3 15  1  0  0  0  0
  3 39  1  0  0  0  0
  4 14  2  0  0  0  0
  5  6  1  0  0  0  0
  5  9  1  0  0  0  0
  5 11  1  0  0  0  0
  6  7  1  0  0  0  0
  6 10  1  0  0  0  0
  6 19  1  0  0  0  0
  7  8  1  0  0  0  0
  7 20  1  0  0  0  0
  7 21  1  0  0  0  0
  8  9  1  0  0  0  0
  8 22  1  0  0  0  0
  9 23  1  0  0  0  0
  9 24  1  0  0  0  0
 10 12  2  0  0  0  0
 10 13  1  0  0  0  0
 11 12  1  0  0  0  0
 11 25  1  0  0  0  0
 11 26  1  0  0  0  0
 12 27  1  0  0  0  0
 13 28  1  0  0  0  0
 13 29  1  0  0  0  0
 14 15  1  0  0  0  0
 15 16  1  0  0  0  0
 15 30  1  0  0  0  0
 16 17  1  0  0  0  0
 16 18  1  0  0  0  0
 16 31  1  0  0  0  0
 17 33  1  0  0  0  0
 17 34  1  0  0  0  0
 17 35  1  0  0  0  0
 18 36  1  0  0  0  0
 18 37  1  0  0  0  0
 18 38  1  0  0  0  0
M  END
> <PUBCHEM_COMPOUND_CID>
526542
> <PUBCHEM_COMPOUND_CANONICALIZED>
1
> <PUBCHEM_CACTVS_COMPLEXITY>
353
> <PUBCHEM_CACTVS_HBOND_ACCEPTOR>
5
> <PUBCHEM_CACTVS_HBOND_DONOR>
2
> <PUBCHEM_CACTVS_ROTATABLE_BOND>
5
> <PUBCHEM_CACTVS_SUBSKEYS>
AAADceByOAAAAAAAAAAAAAAAAAAAAWIAAAAAAAAAAAAQAAAAAAAAHgAACAAADTzhgAYCCAMABgCIAiDSCAKAAAAgAAAACAFIAAgDFBIAgQAHUAAGgACbEAOQYAwIAAAAAAAAAAAAAAAAAAAAAAAAAAAAAA==
> <PUBCHEM_IUPAC_OPENEYE_NAME>
[7-(hydroxymethyl)-2,3,5,8-tetrahydro-1H-pyrrolizin-2-yl] 2-hydroxy-3-methyl-butanoate
> <PUBCHEM_IUPAC_CAS_NAME>
2-hydroxy-3-methylbutanoic acid [7-(hydroxymethyl)-2,3,5,8-tetrahydro-1H-pyrrolizin-2-yl] ester
> <PUBCHEM_IUPAC_NAME_MARKUP>
[7-(hydroxymethyl)-2,3,5,8-tetrahydro-1<I>H</I>-pyrrolizin-2-yl] 2-hydroxy-3-methylbutanoate
> <PUBCHEM_IUPAC_NAME>
[7-(hydroxymethyl)-2,3,5,8-tetrahydro-1H-pyrrolizin-2-yl] 2-hydroxy-3-methylbutanoate
> <PUBCHEM_IUPAC_SYSTEMATIC_NAME>
[7-(hydroxymethyl)-2,3,5,8-tetrahydro-1H-pyrrolizin-2-yl] 3-methyl-2-oxidanyl-butanoate
> <PUBCHEM_IUPAC_TRADITIONAL_NAME>
2-hydroxy-3-methyl-butyric acid (7-methylol-2,3,5,8-tetrahydro-1H-pyrrolizin-2-yl) ester
> <PUBCHEM_IUPAC_INCHI>
InChI=1S/C13H21NO4/c1-8(2)12(16)13(17)18-10-5-11-9(7-15)3-4-14(11)6-10/h3,8,10-12,15-16H,4-7H2,1-2H3
> <PUBCHEM_IUPAC_INCHIKEY>
NSDPACORLSWPEK-UHFFFAOYSA-N
> <PUBCHEM_XLOGP3_AA>
0
> <PUBCHEM_EXACT_MASS>
255.14705815
> <PUBCHEM_MOLECULAR_FORMULA>
C13H21NO4
> <PUBCHEM_MOLECULAR_WEIGHT>
255.31
> <PUBCHEM_OPENEYE_CAN_SMILES>
CC(C)C(C(=O)OC1CC2C(=CCN2C1)CO)O
> <PUBCHEM_OPENEYE_ISO_SMILES>
CC(C)C(C(=O)OC1CC2C(=CCN2C1)CO)O
> <PUBCHEM_CACTVS_TPSA>
70
> <PUBCHEM_MONOISOTOPIC_WEIGHT>
255.14705815
> <PUBCHEM_TOTAL_CHARGE>
0
> <PUBCHEM_HEAVY_ATOM_COUNT>
18
> <PUBCHEM_ATOM_DEF_STEREO_COUNT>
0
> <PUBCHEM_ATOM_UDEF_STEREO_COUNT>
3
> <PUBCHEM_BOND_DEF_STEREO_COUNT>
0
> <PUBCHEM_BOND_UDEF_STEREO_COUNT>
0
> <PUBCHEM_ISOTOPIC_ATOM_COUNT>
0
> <PUBCHEM_COMPONENT_COUNT>
1
> <PUBCHEM_CACTVS_TAUTO_COUNT>
-1
> <PUBCHEM_COORDINATE_TYPE>
1
5
255
> <PUBCHEM_BONDANNOTATIONS>
8  1  3
15  3  3
6  7  3
$$$$
