526540
  -OEChem-10302200292D
 24 25  0     1  0  0  0  0  0999 V2000
    2.3100   -0.8709    0.0000 O   0  0  0  0  0  0  0  0  0  0  0  0
    7.0842    1.0906    0.0000 O   0  0  0  0  0  0  0  0  0  0  0  0
    4.8488   -1.3709    0.0000 N   0  0  3  0  0  0  0  0  0  0  0  0
    4.8488   -0.3709    0.0000 C   0  0  3  0  0  0  0  0  0  0  0  0
    3.8978   -0.0619    0.0000 C   0  0  0  0  0  0  0  0  0  0  0  0
    3.3100   -0.8709    0.0000 C   0  0  3  0  0  0  0  0  0  0  0  0
    3.8978   -1.6799    0.0000 C   0  0  0  0  0  0  0  0  0  0  0  0
    5.7951   -0.0662    0.0000 C   0  0  0  0  0  0  0  0  0  0  0  0
    5.7951   -1.6756    0.0000 C   0  0  0  0  0  0  0  0  0  0  0  0
    6.3787   -0.8709    0.0000 C   0  0  0  0  0  0  0  0  0  0  0  0
    6.1057    0.8844    0.0000 C   0  0  0  0  0  0  0  0  0  0  0  0
    4.8496    0.2491    0.0000 H   0  0  0  0  0  0  0  0  0  0  0  0
    4.1500    0.5045    0.0000 H   0  0  0  0  0  0  0  0  0  0  0  0
    3.3608    0.2481    0.0000 H   0  0  0  0  0  0  0  0  0  0  0  0
    3.0285   -0.3185    0.0000 H   0  0  0  0  0  0  0  0  0  0  0  0
    3.3608   -1.9899    0.0000 H   0  0  0  0  0  0  0  0  0  0  0  0
    4.1500   -2.2463    0.0000 H   0  0  0  0  0  0  0  0  0  0  0  0
    5.5440   -2.2425    0.0000 H   0  0  0  0  0  0  0  0  0  0  0  0
    6.3324   -1.9848    0.0000 H   0  0  0  0  0  0  0  0  0  0  0  0
    6.9987   -0.8709    0.0000 H   0  0  0  0  0  0  0  0  0  0  0  0
    6.0852    1.5040    0.0000 H   0  0  0  0  0  0  0  0  0  0  0  0
    5.4919    0.9717    0.0000 H   0  0  0  0  0  0  0  0  0  0  0  0
    2.0000   -1.4078    0.0000 H   0  0  0  0  0  0  0  0  0  0  0  0
    7.2768    1.6799    0.0000 H   0  0  0  0  0  0  0  0  0  0  0  0
  1  6  1  0  0  0  0
  1 23  1  0  0  0  0
  2 11  1  0  0  0  0
  2 24  1  0  0  0  0
  3  4  1  0  0  0  0
  3  7  1  0  0  0  0
  3  9  1  0  0  0  0
  4  5  1  0  0  0  0
  4  8  1  0  0  0  0
  4 12  1  0  0  0  0
  5  6  1  0  0  0  0
  5 13  1  0  0  0  0
  5 14  1  0  0  0  0
  6  7  1  0  0  0  0
  6 15  1  0  0  0  0
  7 16  1  0  0  0  0
  7 17  1  0  0  0  0
  8 10  2  0  0  0  0
  8 11  1  0  0  0  0
  9 10  1  0  0  0  0
  9 18  1  0  0  0  0
  9 19  1  0  0  0  0
 10 20  1  0  0  0  0
 11 21  1  0  0  0  0
 11 22  1  0  0  0  0
M  END
> <PUBCHEM_COMPOUND_CID>
526540
> <PUBCHEM_COMPOUND_CANONICALIZED>
1
> <PUBCHEM_CACTVS_COMPLEXITY>
191
> <PUBCHEM_CACTVS_HBOND_ACCEPTOR>
3
> <PUBCHEM_CACTVS_HBOND_DONOR>
2
> <PUBCHEM_CACTVS_ROTATABLE_BOND>
1
> <PUBCHEM_CACTVS_SUBSKEYS>
AAADccByMAAAAAAAAAAAAAAAAAAAAWIAAAAAAAAAAAAQAAAAAAAAHgAACAAADDzhgAYAAAMAAgCAAiBCAACAAAAgAAAACAAIAAgCFAIAgQAEUAAGgACYEAOQYAQAAAAAAAAAAAAAAAAAAAAAAAAAAAAAAA==
> <PUBCHEM_IUPAC_OPENEYE_NAME>
7-(hydroxymethyl)-2,3,5,8-tetrahydro-1H-pyrrolizin-2-ol
> <PUBCHEM_IUPAC_CAS_NAME>
7-(hydroxymethyl)-2,3,5,8-tetrahydro-1H-pyrrolizin-2-ol
> <PUBCHEM_IUPAC_NAME_MARKUP>
7-(hydroxymethyl)-2,3,5,8-tetrahydro-1<I>H</I>-pyrrolizin-2-ol
> <PUBCHEM_IUPAC_NAME>
7-(hydroxymethyl)-2,3,5,8-tetrahydro-1H-pyrrolizin-2-ol
> <PUBCHEM_IUPAC_SYSTEMATIC_NAME>
7-(hydroxymethyl)-2,3,5,8-tetrahydro-1H-pyrrolizin-2-ol
> <PUBCHEM_IUPAC_TRADITIONAL_NAME>
7-methylol-2,3,5,8-tetrahydro-1H-pyrrolizin-2-ol
> <PUBCHEM_IUPAC_INCHI>
InChI=1S/C8H13NO2/c10-5-6-1-2-9-4-7(11)3-8(6)9/h1,7-8,10-11H,2-5H2
> <PUBCHEM_IUPAC_INCHIKEY>
KLIBZRXIMOPQCL-UHFFFAOYSA-N
> <PUBCHEM_XLOGP3_AA>
-1.3
> <PUBCHEM_EXACT_MASS>
155.094628657
> <PUBCHEM_MOLECULAR_FORMULA>
C8H13NO2
> <PUBCHEM_MOLECULAR_WEIGHT>
155.19
> <PUBCHEM_OPENEYE_CAN_SMILES>
C1C=C(C2N1CC(C2)O)CO
> <PUBCHEM_OPENEYE_ISO_SMILES>
C1C=C(C2N1CC(C2)O)CO
> <PUBCHEM_CACTVS_TPSA>
43.7
> <PUBCHEM_MONOISOTOPIC_WEIGHT>
155.094628657
> <PUBCHEM_TOTAL_CHARGE>
0
> <PUBCHEM_HEAVY_ATOM_COUNT>
11
> <PUBCHEM_ATOM_DEF_STEREO_COUNT>
0
> <PUBCHEM_ATOM_UDEF_STEREO_COUNT>
2
> <PUBCHEM_BOND_DEF_STEREO_COUNT>
0
> <PUBCHEM_BOND_UDEF_STEREO_COUNT>
0
> <PUBCHEM_ISOTOPIC_ATOM_COUNT>
0
> <PUBCHEM_COMPONENT_COUNT>
1
> <PUBCHEM_CACTVS_TAUTO_COUNT>
-1
> <PUBCHEM_COORDINATE_TYPE>
1
5
255
> <PUBCHEM_BONDANNOTATIONS>
6  1  3
4  5  3
$$$$
