526544
  -OEChem-10302200292D
 48 49  0     1  0  0  0  0  0999 V2000
    8.6759   -0.2274    0.0000 O   0  0  0  0  0  0  0  0  0  0  0  0
    5.1808   -0.0146    0.0000 O   0  0  0  0  0  0  0  0  0  0  0  0
    3.6857    0.1662    0.0000 O   0  0  0  0  0  0  0  0  0  0  0  0
    2.6064    2.3033    0.0000 O   0  0  0  0  0  0  0  0  0  0  0  0
    7.4190   -2.4826    0.0000 N   0  0  3  0  0  0  0  0  0  0  0  0
    7.4190   -1.4826    0.0000 C   0  0  3  0  0  0  0  0  0  0  0  0
    8.3652   -1.1779    0.0000 C   0  0  3  0  0  0  0  0  0  0  0  0
    8.3652   -2.7873    0.0000 C   0  0  0  0  0  0  0  0  0  0  0  0
    8.9488   -1.9826    0.0000 C   0  0  0  0  0  0  0  0  0  0  0  0
    6.4680   -1.1736    0.0000 C   0  0  0  0  0  0  0  0  0  0  0  0
    6.4680   -2.7916    0.0000 C   0  0  0  0  0  0  0  0  0  0  0  0
    5.8802   -1.9826    0.0000 C   0  0  0  0  0  0  0  0  0  0  0  0
    6.1589   -0.2225    0.0000 C   0  0  0  0  0  0  0  0  0  0  0  0
    3.8936    1.1444    0.0000 C   0  0  3  0  0  0  0  0  0  0  0  0
    4.1015    2.1225    0.0000 C   0  0  0  0  0  0  0  0  0  0  0  0
    4.8718    0.9364    0.0000 C   0  0  0  0  0  0  0  0  0  0  0  0
    2.9155    1.3523    0.0000 C   0  0  3  0  0  0  0  0  0  0  0  0
    3.3584    2.7916    0.0000 C   0  0  0  0  0  0  0  0  0  0  0  0
    5.0526    2.4315    0.0000 C   0  0  0  0  0  0  0  0  0  0  0  0
    2.2463    0.6091    0.0000 C   0  0  0  0  0  0  0  0  0  0  0  0
    5.5409    1.6796    0.0000 C   0  0  0  0  0  0  0  0  0  0  0  0
    7.4198   -0.8626    0.0000 H   0  0  0  0  0  0  0  0  0  0  0  0
    8.9777   -1.0817    0.0000 H   0  0  0  0  0  0  0  0  0  0  0  0
    8.1142   -3.3542    0.0000 H   0  0  0  0  0  0  0  0  0  0  0  0
    8.9026   -3.0966    0.0000 H   0  0  0  0  0  0  0  0  0  0  0  0
    9.4097   -2.3973    0.0000 H   0  0  0  0  0  0  0  0  0  0  0  0
    9.4097   -1.5679    0.0000 H   0  0  0  0  0  0  0  0  0  0  0  0
    5.9310   -3.1016    0.0000 H   0  0  0  0  0  0  0  0  0  0  0  0
    6.7201   -3.3580    0.0000 H   0  0  0  0  0  0  0  0  0  0  0  0
    5.2602   -1.9826    0.0000 H   0  0  0  0  0  0  0  0  0  0  0  0
    6.7729   -0.1362    0.0000 H   0  0  0  0  0  0  0  0  0  0  0  0
    6.1806    0.3971    0.0000 H   0  0  0  0  0  0  0  0  0  0  0  0
    9.2826   -0.0995    0.0000 H   0  0  0  0  0  0  0  0  0  0  0  0
    3.5119    1.9309    0.0000 H   0  0  0  0  0  0  0  0  0  0  0  0
    2.3090    1.4812    0.0000 H   0  0  0  0  0  0  0  0  0  0  0  0
    3.7732    3.2524    0.0000 H   0  0  0  0  0  0  0  0  0  0  0  0
    2.8976    3.2065    0.0000 H   0  0  0  0  0  0  0  0  0  0  0  0
    2.9435    2.3309    0.0000 H   0  0  0  0  0  0  0  0  0  0  0  0
    5.2442    1.8419    0.0000 H   0  0  0  0  0  0  0  0  0  0  0  0
    5.6422    2.6231    0.0000 H   0  0  0  0  0  0  0  0  0  0  0  0
    4.8610    3.0212    0.0000 H   0  0  0  0  0  0  0  0  0  0  0  0
    1.7856    1.0240    0.0000 H   0  0  0  0  0  0  0  0  0  0  0  0
    1.8315    0.1484    0.0000 H   0  0  0  0  0  0  0  0  0  0  0  0
    2.7071    0.1943    0.0000 H   0  0  0  0  0  0  0  0  0  0  0  0
    3.0960   -0.0254    0.0000 H   0  0  0  0  0  0  0  0  0  0  0  0
    6.1474    1.5507    0.0000 H   0  0  0  0  0  0  0  0  0  0  0  0
    5.3493    2.2692    0.0000 H   0  0  0  0  0  0  0  0  0  0  0  0
    2.0000    2.4322    0.0000 H   0  0  0  0  0  0  0  0  0  0  0  0
  1  7  1  0  0  0  0
  1 33  1  0  0  0  0
  2 13  1  0  0  0  0
  2 16  1  0  0  0  0
  3 14  1  0  0  0  0
  3 45  1  0  0  0  0
  4 17  1  0  0  0  0
  4 48  1  0  0  0  0
  5  6  1  0  0  0  0
  5  8  1  0  0  0  0
  5 11  1  0  0  0  0
  6  7  1  0  0  0  0
  6 10  1  0  0  0  0
  6 22  1  0  0  0  0
  7  9  1  0  0  0  0
  7 23  1  0  0  0  0
  8  9  1  0  0  0  0
  8 24  1  0  0  0  0
  8 25  1  0  0  0  0
  9 26  1  0  0  0  0
  9 27  1  0  0  0  0
 10 12  2  0  0  0  0
 10 13  1  0  0  0  0
 11 12  1  0  0  0  0
 11 28  1  0  0  0  0
 11 29  1  0  0  0  0
 12 30  1  0  0  0  0
 13 31  1  0  0  0  0
 13 32  1  0  0  0  0
 14 15  1  0  0  0  0
 14 16  1  0  0  0  0
 14 17  1  0  0  0  0
 15 18  1  0  0  0  0
 15 19  1  0  0  0  0
 15 34  1  0  0  0  0
 16 21  2  0  0  0  0
 17 20  1  0  0  0  0
 17 35  1  0  0  0  0
 18 36  1  0  0  0  0
 18 37  1  0  0  0  0
 18 38  1  0  0  0  0
 19 39  1  0  0  0  0
 19 40  1  0  0  0  0
 19 41  1  0  0  0  0
 20 42  1  0  0  0  0
 20 43  1  0  0  0  0
 20 44  1  0  0  0  0
 21 46  1  0  0  0  0
 21 47  1  0  0  0  0
M  END
> <PUBCHEM_COMPOUND_CID>
526544
> <PUBCHEM_COMPOUND_CANONICALIZED>
1
> <PUBCHEM_CACTVS_COMPLEXITY>
434
> <PUBCHEM_CACTVS_HBOND_ACCEPTOR>
5
> <PUBCHEM_CACTVS_HBOND_DONOR>
3
> <PUBCHEM_CACTVS_ROTATABLE_BOND>
6
> <PUBCHEM_CACTVS_SUBSKEYS>
AAADceB6OAAAAAAAAAAAAAAAAAAAAWIAAAAAAAAAAAAQAAAAAAAAHgAACAAADXzhgAYCAAMABgCAAiBCAACACAAgAAAACAAIAAgDFAIAoQAGUAAHwACbMAPQQAAOgAAAAAAAAAAAAAAAAAAAAAAAAAAAAA==
> <PUBCHEM_IUPAC_OPENEYE_NAME>
4-[(7-hydroxy-5,6,7,8-tetrahydro-3H-pyrrolizin-1-yl)methoxy]-3-isopropyl-pent-4-ene-2,3-diol
> <PUBCHEM_IUPAC_CAS_NAME>
4-[(7-hydroxy-5,6,7,8-tetrahydro-3H-pyrrolizin-1-yl)methoxy]-3-propan-2-yl-4-pentene-2,3-diol
> <PUBCHEM_IUPAC_NAME_MARKUP>
4-[(7-hydroxy-5,6,7,8-tetrahydro-3<I>H</I>-pyrrolizin-1-yl)methoxy]-3-propan-2-ylpent-4-ene-2,3-diol
> <PUBCHEM_IUPAC_NAME>
4-[(7-hydroxy-5,6,7,8-tetrahydro-3H-pyrrolizin-1-yl)methoxy]-3-propan-2-ylpent-4-ene-2,3-diol
> <PUBCHEM_IUPAC_SYSTEMATIC_NAME>
4-[(7-oxidanyl-5,6,7,8-tetrahydro-3H-pyrrolizin-1-yl)methoxy]-3-propan-2-yl-pent-4-ene-2,3-diol
> <PUBCHEM_IUPAC_TRADITIONAL_NAME>
4-[(7-hydroxy-5,6,7,8-tetrahydro-3H-pyrrolizin-1-yl)methoxy]-3-isopropyl-pent-4-ene-2,3-diol
> <PUBCHEM_IUPAC_INCHI>
InChI=1S/C16H27NO4/c1-10(2)16(20,11(3)18)12(4)21-9-13-5-7-17-8-6-14(19)15(13)17/h5,10-11,14-15,18-20H,4,6-9H2,1-3H3
> <PUBCHEM_IUPAC_INCHIKEY>
LCGFFVMHSUIPAC-UHFFFAOYSA-N
> <PUBCHEM_XLOGP3_AA>
0
> <PUBCHEM_EXACT_MASS>
297.19400834
> <PUBCHEM_MOLECULAR_FORMULA>
C16H27NO4
> <PUBCHEM_MOLECULAR_WEIGHT>
297.39
> <PUBCHEM_OPENEYE_CAN_SMILES>
CC(C)C(C(C)O)(C(=C)OCC1=CCN2C1C(CC2)O)O
> <PUBCHEM_OPENEYE_ISO_SMILES>
CC(C)C(C(C)O)(C(=C)OCC1=CCN2C1C(CC2)O)O
> <PUBCHEM_CACTVS_TPSA>
73.2
> <PUBCHEM_MONOISOTOPIC_WEIGHT>
297.19400834
> <PUBCHEM_TOTAL_CHARGE>
0
> <PUBCHEM_HEAVY_ATOM_COUNT>
21
> <PUBCHEM_ATOM_DEF_STEREO_COUNT>
0
> <PUBCHEM_ATOM_UDEF_STEREO_COUNT>
4
> <PUBCHEM_BOND_DEF_STEREO_COUNT>
0
> <PUBCHEM_BOND_UDEF_STEREO_COUNT>
0
> <PUBCHEM_ISOTOPIC_ATOM_COUNT>
0
> <PUBCHEM_COMPONENT_COUNT>
1
> <PUBCHEM_CACTVS_TAUTO_COUNT>
-1
> <PUBCHEM_COORDINATE_TYPE>
1
5
255
> <PUBCHEM_BONDANNOTATIONS>
7  1  3
14  3  3
17  4  3
6  10  3
$$$$
