526691
  -OEChem-10302200292D
 31 31  0     1  0  0  0  0  0999 V2000
    4.5981   -1.7500    0.0000 O   0  0  0  0  0  0  0  0  0  0  0  0
    4.5981    1.2500    0.0000 O   0  0  0  0  0  0  0  0  0  0  0  0
    2.8660    0.2500    0.0000 O   0  0  0  0  0  0  0  0  0  0  0  0
    6.3301    0.2500    0.0000 O   0  0  0  0  0  0  0  0  0  0  0  0
    4.5981    0.2500    0.0000 C   0  0  3  0  0  0  0  0  0  0  0  0
    3.7320   -0.2500    0.0000 C   0  0  3  0  0  0  0  0  0  0  0  0
    5.4641   -0.2500    0.0000 C   0  0  3  0  0  0  0  0  0  0  0  0
    3.7320   -1.2500    0.0000 C   0  0  3  0  0  0  0  0  0  0  0  0
    5.4641   -1.2500    0.0000 C   0  0  0  0  0  0  0  0  0  0  0  0
    2.8660   -1.7500    0.0000 C   0  0  0  0  0  0  0  0  0  0  0  0
    5.4641    1.7500    0.0000 C   0  0  0  0  0  0  0  0  0  0  0  0
    2.0000   -0.2500    0.0000 C   0  0  0  0  0  0  0  0  0  0  0  0
    7.1962   -0.2500    0.0000 C   0  0  0  0  0  0  0  0  0  0  0  0
    5.1350    0.5600    0.0000 H   0  0  0  0  0  0  0  0  0  0  0  0
    3.7320    0.3700    0.0000 H   0  0  0  0  0  0  0  0  0  0  0  0
    6.0010   -0.5600    0.0000 H   0  0  0  0  0  0  0  0  0  0  0  0
    3.7320   -1.8700    0.0000 H   0  0  0  0  0  0  0  0  0  0  0  0
    5.6762   -1.8326    0.0000 H   0  0  0  0  0  0  0  0  0  0  0  0
    6.0747   -1.1423    0.0000 H   0  0  0  0  0  0  0  0  0  0  0  0
    2.5560   -1.2131    0.0000 H   0  0  0  0  0  0  0  0  0  0  0  0
    2.3291   -2.0600    0.0000 H   0  0  0  0  0  0  0  0  0  0  0  0
    3.1760   -2.2869    0.0000 H   0  0  0  0  0  0  0  0  0  0  0  0
    5.7741    1.2131    0.0000 H   0  0  0  0  0  0  0  0  0  0  0  0
    6.0010    2.0600    0.0000 H   0  0  0  0  0  0  0  0  0  0  0  0
    5.1541    2.2869    0.0000 H   0  0  0  0  0  0  0  0  0  0  0  0
    1.6900    0.2869    0.0000 H   0  0  0  0  0  0  0  0  0  0  0  0
    1.4631   -0.5600    0.0000 H   0  0  0  0  0  0  0  0  0  0  0  0
    2.3100   -0.7869    0.0000 H   0  0  0  0  0  0  0  0  0  0  0  0
    6.8862   -0.7869    0.0000 H   0  0  0  0  0  0  0  0  0  0  0  0
    7.7331   -0.5600    0.0000 H   0  0  0  0  0  0  0  0  0  0  0  0
    7.5062    0.2869    0.0000 H   0  0  0  0  0  0  0  0  0  0  0  0
  1  8  1  0  0  0  0
  1  9  1  0  0  0  0
  2  5  1  0  0  0  0
  2 11  1  0  0  0  0
  3  6  1  0  0  0  0
  3 12  1  0  0  0  0
  4  7  1  0  0  0  0
  4 13  1  0  0  0  0
  5  6  1  0  0  0  0
  5  7  1  0  0  0  0
  5 14  1  0  0  0  0
  6  8  1  0  0  0  0
  6 15  1  0  0  0  0
  7  9  1  0  0  0  0
  7 16  1  0  0  0  0
  8 10  1  0  0  0  0
  8 17  1  0  0  0  0
  9 18  1  0  0  0  0
  9 19  1  0  0  0  0
 10 20  1  0  0  0  0
 10 21  1  0  0  0  0
 10 22  1  0  0  0  0
 11 23  1  0  0  0  0
 11 24  1  0  0  0  0
 11 25  1  0  0  0  0
 12 26  1  0  0  0  0
 12 27  1  0  0  0  0
 12 28  1  0  0  0  0
 13 29  1  0  0  0  0
 13 30  1  0  0  0  0
 13 31  1  0  0  0  0
M  END
> <PUBCHEM_COMPOUND_CID>
526691
> <PUBCHEM_COMPOUND_CANONICALIZED>
1
> <PUBCHEM_CACTVS_COMPLEXITY>
151
> <PUBCHEM_CACTVS_HBOND_ACCEPTOR>
4
> <PUBCHEM_CACTVS_HBOND_DONOR>
0
> <PUBCHEM_CACTVS_ROTATABLE_BOND>
3
> <PUBCHEM_CACTVS_SUBSKEYS>
AAADceBwOAAAAAAAAAAAAAAAAAAAAAAAAAAkAAAAAAAAAAAAAAAAGgAAAAAACBSggAICAAAABAAAAAAAAAAAAAAAAAAAAAAAAAABAAIAAAACAAAFAAACAAHAQAAAAAAAAAAAAAAAAAAAAAAAAAAAAAAAAA==
> <PUBCHEM_IUPAC_OPENEYE_NAME>
3,4,5-trimethoxy-2-methyl-tetrahydropyran
> <PUBCHEM_IUPAC_CAS_NAME>
3,4,5-trimethoxy-2-methyloxane
> <PUBCHEM_IUPAC_NAME_MARKUP>
3,4,5-trimethoxy-2-methyloxane
> <PUBCHEM_IUPAC_NAME>
3,4,5-trimethoxy-2-methyloxane
> <PUBCHEM_IUPAC_SYSTEMATIC_NAME>
3,4,5-trimethoxy-2-methyl-oxane
> <PUBCHEM_IUPAC_TRADITIONAL_NAME>
3,4,5-trimethoxy-2-methyl-tetrahydropyran
> <PUBCHEM_IUPAC_INCHI>
InChI=1S/C9H18O4/c1-6-8(11-3)9(12-4)7(10-2)5-13-6/h6-9H,5H2,1-4H3
> <PUBCHEM_IUPAC_INCHIKEY>
VOHHBIXLBGOYCN-UHFFFAOYSA-N
> <PUBCHEM_XLOGP3_AA>
0
> <PUBCHEM_EXACT_MASS>
190.12050905
> <PUBCHEM_MOLECULAR_FORMULA>
C9H18O4
> <PUBCHEM_MOLECULAR_WEIGHT>
190.24
> <PUBCHEM_OPENEYE_CAN_SMILES>
CC1C(C(C(CO1)OC)OC)OC
> <PUBCHEM_OPENEYE_ISO_SMILES>
CC1C(C(C(CO1)OC)OC)OC
> <PUBCHEM_CACTVS_TPSA>
36.9
> <PUBCHEM_MONOISOTOPIC_WEIGHT>
190.12050905
> <PUBCHEM_TOTAL_CHARGE>
0
> <PUBCHEM_HEAVY_ATOM_COUNT>
13
> <PUBCHEM_ATOM_DEF_STEREO_COUNT>
0
> <PUBCHEM_ATOM_UDEF_STEREO_COUNT>
4
> <PUBCHEM_BOND_DEF_STEREO_COUNT>
0
> <PUBCHEM_BOND_UDEF_STEREO_COUNT>
0
> <PUBCHEM_ISOTOPIC_ATOM_COUNT>
0
> <PUBCHEM_COMPONENT_COUNT>
1
> <PUBCHEM_CACTVS_TAUTO_COUNT>
-1
> <PUBCHEM_COORDINATE_TYPE>
1
5
255
> <PUBCHEM_BONDANNOTATIONS>
5  2  3
6  3  3
7  4  3
8  10  3
$$$$
