526689
  -OEChem-10302200292D
 25 25  0     1  0  0  0  0  0999 V2000
    3.7601   -0.8242    0.0000 S   0  0  0  0  0  0  0  0  0  0  0  0
    4.2601    0.7146    0.0000 N   0  0  0  0  0  0  0  0  0  0  0  0
    4.5691   -0.2365    0.0000 C   0  0  3  0  0  0  0  0  0  0  0  0
    5.5202   -0.5455    0.0000 C   0  0  0  0  0  0  0  0  0  0  0  0
    2.9511   -0.2365    0.0000 C   0  0  3  0  0  0  0  0  0  0  0  0
    3.2601    0.7146    0.0000 C   0  0  0  0  0  0  0  0  0  0  0  0
    5.7281   -1.5236    0.0000 C   0  0  0  0  0  0  0  0  0  0  0  0
    6.2633    0.1237    0.0000 C   0  0  0  0  0  0  0  0  0  0  0  0
    2.0000   -0.5455    0.0000 C   0  0  0  0  0  0  0  0  0  0  0  0
    2.6723    1.5236    0.0000 C   0  0  0  0  0  0  0  0  0  0  0  0
    5.0075    0.2020    0.0000 H   0  0  0  0  0  0  0  0  0  0  0  0
    5.0594   -0.9603    0.0000 H   0  0  0  0  0  0  0  0  0  0  0  0
    2.8541   -0.8488    0.0000 H   0  0  0  0  0  0  0  0  0  0  0  0
    5.1216   -1.6525    0.0000 H   0  0  0  0  0  0  0  0  0  0  0  0
    5.8570   -2.1301    0.0000 H   0  0  0  0  0  0  0  0  0  0  0  0
    6.3345   -1.3947    0.0000 H   0  0  0  0  0  0  0  0  0  0  0  0
    6.6782   -0.3371    0.0000 H   0  0  0  0  0  0  0  0  0  0  0  0
    6.7240    0.5385    0.0000 H   0  0  0  0  0  0  0  0  0  0  0  0
    5.8484    0.5844    0.0000 H   0  0  0  0  0  0  0  0  0  0  0  0
    1.8084    0.0442    0.0000 H   0  0  0  0  0  0  0  0  0  0  0  0
    1.4103   -0.7371    0.0000 H   0  0  0  0  0  0  0  0  0  0  0  0
    2.1916   -1.1351    0.0000 H   0  0  0  0  0  0  0  0  0  0  0  0
    3.1739    1.8880    0.0000 H   0  0  0  0  0  0  0  0  0  0  0  0
    2.3079    2.0252    0.0000 H   0  0  0  0  0  0  0  0  0  0  0  0
    2.1707    1.1592    0.0000 H   0  0  0  0  0  0  0  0  0  0  0  0
  1  3  1  0  0  0  0
  1  5  1  0  0  0  0
  2  3  1  0  0  0  0
  2  6  2  0  0  0  0
  3  4  1  0  0  0  0
  3 11  1  0  0  0  0
  4  7  1  0  0  0  0
  4  8  1  0  0  0  0
  4 12  1  0  0  0  0
  5  6  1  0  0  0  0
  5  9  1  0  0  0  0
  5 13  1  0  0  0  0
  6 10  1  0  0  0  0
  7 14  1  0  0  0  0
  7 15  1  0  0  0  0
  7 16  1  0  0  0  0
  8 17  1  0  0  0  0
  8 18  1  0  0  0  0
  8 19  1  0  0  0  0
  9 20  1  0  0  0  0
  9 21  1  0  0  0  0
  9 22  1  0  0  0  0
 10 23  1  0  0  0  0
 10 24  1  0  0  0  0
 10 25  1  0  0  0  0
M  END
> <PUBCHEM_COMPOUND_CID>
526689
> <PUBCHEM_COMPOUND_CANONICALIZED>
1
> <PUBCHEM_CACTVS_COMPLEXITY>
151
> <PUBCHEM_CACTVS_HBOND_ACCEPTOR>
2
> <PUBCHEM_CACTVS_HBOND_DONOR>
0
> <PUBCHEM_CACTVS_ROTATABLE_BOND>
1
> <PUBCHEM_CACTVS_SUBSKEYS>
AAADccByAABAAAAAAAAAAAAAAAAAAQAAAAAAAAAAAAAAAAAAAAAAHAQAAAAADQjFQASCAAIAAAggAQAgBAAAAABAABAAAAAwAAAAAAAgAAAAAAAAAAAgAAAAAAAAAAAAAAAAAAAAAAAAAAAAAAAAAAAAAA==
> <PUBCHEM_IUPAC_OPENEYE_NAME>
2-isopropyl-4,5-dimethyl-2,5-dihydrothiazole
> <PUBCHEM_IUPAC_CAS_NAME>
4,5-dimethyl-2-propan-2-yl-2,5-dihydrothiazole
> <PUBCHEM_IUPAC_NAME_MARKUP>
4,5-dimethyl-2-propan-2-yl-2,5-dihydro-1,3-thiazole
> <PUBCHEM_IUPAC_NAME>
4,5-dimethyl-2-propan-2-yl-2,5-dihydro-1,3-thiazole
> <PUBCHEM_IUPAC_SYSTEMATIC_NAME>
4,5-dimethyl-2-propan-2-yl-2,5-dihydro-1,3-thiazole
> <PUBCHEM_IUPAC_TRADITIONAL_NAME>
2-isopropyl-4,5-dimethyl-3-thiazoline
> <PUBCHEM_IUPAC_INCHI>
InChI=1S/C8H15NS/c1-5(2)8-9-6(3)7(4)10-8/h5,7-8H,1-4H3
> <PUBCHEM_IUPAC_INCHIKEY>
FVCWUBASYJVIEJ-UHFFFAOYSA-N
> <PUBCHEM_XLOGP3_AA>
2.3
> <PUBCHEM_EXACT_MASS>
157.09252066
> <PUBCHEM_MOLECULAR_FORMULA>
C8H15NS
> <PUBCHEM_MOLECULAR_WEIGHT>
157.28
> <PUBCHEM_OPENEYE_CAN_SMILES>
CC1C(=NC(S1)C(C)C)C
> <PUBCHEM_OPENEYE_ISO_SMILES>
CC1C(=NC(S1)C(C)C)C
> <PUBCHEM_CACTVS_TPSA>
37.7
> <PUBCHEM_MONOISOTOPIC_WEIGHT>
157.09252066
> <PUBCHEM_TOTAL_CHARGE>
0
> <PUBCHEM_HEAVY_ATOM_COUNT>
10
> <PUBCHEM_ATOM_DEF_STEREO_COUNT>
0
> <PUBCHEM_ATOM_UDEF_STEREO_COUNT>
2
> <PUBCHEM_BOND_DEF_STEREO_COUNT>
0
> <PUBCHEM_BOND_UDEF_STEREO_COUNT>
0
> <PUBCHEM_ISOTOPIC_ATOM_COUNT>
0
> <PUBCHEM_COMPONENT_COUNT>
1
> <PUBCHEM_CACTVS_TAUTO_COUNT>
-1
> <PUBCHEM_COORDINATE_TYPE>
1
5
255
> <PUBCHEM_BONDANNOTATIONS>
3  4  3
5  9  3
$$$$
