526670
  -OEChem-10302200292D
 87 90  0     1  0  0  0  0  0999 V2000
    8.2591    1.8832    0.0000 O   0  0  0  0  0  0  0  0  0  0  0  0
    9.1469   -2.6482    0.0000 O   0  0  0  0  0  0  0  0  0  0  0  0
    3.7320   -2.6691    0.0000 O   0  0  0  0  0  0  0  0  0  0  0  0
    6.5270    1.8832    0.0000 O   0  0  0  0  0  0  0  0  0  0  0  0
    8.2983   -4.1582    0.0000 O   0  0  0  0  0  0  0  0  0  0  0  0
   12.9603    3.9519    0.0000 O   0  0  0  0  0  0  0  0  0  0  0  0
    2.8718   -1.1658    0.0000 O   0  0  0  0  0  0  0  0  0  0  0  0
   13.3175    2.2571    0.0000 O   0  0  0  0  0  0  0  0  0  0  0  0
    9.1251    0.3832    0.0000 C   0  0  3  0  0  0  0  0  0  0  0  0
    9.1251   -0.6168    0.0000 C   0  0  3  0  0  0  0  0  0  0  0  0
    8.2591   -1.1168    0.0000 C   0  0  3  0  0  0  0  0  0  0  0  0
    7.3931   -0.6168    0.0000 C   0  0  3  0  0  0  0  0  0  0  0  0
    6.4831   -1.1236    0.0000 C   0  0  3  0  0  0  0  0  0  0  0  0
   10.0713    0.6879    0.0000 C   0  0  3  0  0  0  0  0  0  0  0  0
    8.2591    0.8832    0.0000 C   0  0  3  0  0  0  0  0  0  0  0  0
    7.3931    0.3832    0.0000 C   0  0  0  0  0  0  0  0  0  0  0  0
    6.4750   -2.1652    0.0000 C   0  0  3  0  0  0  0  0  0  0  0  0
    8.2752   -2.1583    0.0000 C   0  0  3  0  0  0  0  0  0  0  0  0
   10.0713   -0.9215    0.0000 C   0  0  0  0  0  0  0  0  0  0  0  0
   10.6550   -0.1168    0.0000 C   0  0  0  0  0  0  0  0  0  0  0  0
    7.3771   -2.6860    0.0000 C   0  0  0  0  0  0  0  0  0  0  0  0
    5.5562   -0.5596    0.0000 C   0  0  0  0  0  0  0  0  0  0  0  0
    9.1251    1.3832    0.0000 C   0  0  0  0  0  0  0  0  0  0  0  0
   10.3820    1.6385    0.0000 C   0  0  3  0  0  0  0  0  0  0  0  0
    5.5396   -2.7150    0.0000 C   0  0  0  0  0  0  0  0  0  0  0  0
    6.4908   -0.1237    0.0000 C   0  0  0  0  0  0  0  0  0  0  0  0
    4.6084   -1.0875    0.0000 C   0  0  0  0  0  0  0  0  0  0  0  0
    4.6000   -2.1725    0.0000 C   0  0  3  0  0  0  0  0  0  0  0  0
   11.3605    1.8447    0.0000 C   0  0  0  0  0  0  0  0  0  0  0  0
    9.7142    2.3828    0.0000 C   0  0  0  0  0  0  0  0  0  0  0  0
    7.3931    2.3832    0.0000 C   0  0  0  0  0  0  0  0  0  0  0  0
   11.6712    2.7952    0.0000 C   0  0  0  0  0  0  0  0  0  0  0  0
    9.1585   -3.6482    0.0000 C   0  0  0  0  0  0  0  0  0  0  0  0
    7.3931    3.3832    0.0000 C   0  0  0  0  0  0  0  0  0  0  0  0
    2.8680   -2.1658    0.0000 C   0  0  0  0  0  0  0  0  0  0  0  0
   10.0302   -4.1381    0.0000 C   0  0  0  0  0  0  0  0  0  0  0  0
   12.6497    3.0014    0.0000 C   0  0  0  0  0  0  0  0  0  0  0  0
    2.0000   -2.6624    0.0000 C   0  0  0  0  0  0  0  0  0  0  0  0
   13.9388    4.1582    0.0000 C   0  0  0  0  0  0  0  0  0  0  0  0
    9.1907   -1.2333    0.0000 H   0  0  0  0  0  0  0  0  0  0  0  0
    8.7984   -1.4226    0.0000 H   0  0  0  0  0  0  0  0  0  0  0  0
    7.9300   -0.3068    0.0000 H   0  0  0  0  0  0  0  0  0  0  0  0
   10.6838    0.7841    0.0000 H   0  0  0  0  0  0  0  0  0  0  0  0
    7.7222    1.1932    0.0000 H   0  0  0  0  0  0  0  0  0  0  0  0
    7.1810    0.9658    0.0000 H   0  0  0  0  0  0  0  0  0  0  0  0
    6.7825    0.2756    0.0000 H   0  0  0  0  0  0  0  0  0  0  0  0
    6.4774   -2.7852    0.0000 H   0  0  0  0  0  0  0  0  0  0  0  0
    8.2811   -2.7783    0.0000 H   0  0  0  0  0  0  0  0  0  0  0  0
    9.8203   -1.4884    0.0000 H   0  0  0  0  0  0  0  0  0  0  0  0
   10.6087   -1.2308    0.0000 H   0  0  0  0  0  0  0  0  0  0  0  0
   11.1158   -0.5315    0.0000 H   0  0  0  0  0  0  0  0  0  0  0  0
   11.1158    0.2979    0.0000 H   0  0  0  0  0  0  0  0  0  0  0  0
    6.9798   -3.1620    0.0000 H   0  0  0  0  0  0  0  0  0  0  0  0
    7.7781   -3.1589    0.0000 H   0  0  0  0  0  0  0  0  0  0  0  0
    5.9644   -0.0929    0.0000 H   0  0  0  0  0  0  0  0  0  0  0  0
    5.1663   -0.0775    0.0000 H   0  0  0  0  0  0  0  0  0  0  0  0
    9.7451    1.3832    0.0000 H   0  0  0  0  0  0  0  0  0  0  0  0
    9.1251    2.0032    0.0000 H   0  0  0  0  0  0  0  0  0  0  0  0
    8.5051    1.3832    0.0000 H   0  0  0  0  0  0  0  0  0  0  0  0
   10.5746    2.2278    0.0000 H   0  0  0  0  0  0  0  0  0  0  0  0
    5.1423   -3.1909    0.0000 H   0  0  0  0  0  0  0  0  0  0  0  0
    5.9406   -3.1878    0.0000 H   0  0  0  0  0  0  0  0  0  0  0  0
    7.1108   -0.1284    0.0000 H   0  0  0  0  0  0  0  0  0  0  0  0
    6.4956    0.4963    0.0000 H   0  0  0  0  0  0  0  0  0  0  0  0
    5.8708   -0.1189    0.0000 H   0  0  0  0  0  0  0  0  0  0  0  0
    4.4038   -0.5022    0.0000 H   0  0  0  0  0  0  0  0  0  0  0  0
    3.9967   -1.1889    0.0000 H   0  0  0  0  0  0  0  0  0  0  0  0
    4.0648   -1.8594    0.0000 H   0  0  0  0  0  0  0  0  0  0  0  0
   11.3811    1.2250    0.0000 H   0  0  0  0  0  0  0  0  0  0  0  0
   11.9743    1.7573    0.0000 H   0  0  0  0  0  0  0  0  0  0  0  0
   10.1756    2.7968    0.0000 H   0  0  0  0  0  0  0  0  0  0  0  0
    9.3001    2.8442    0.0000 H   0  0  0  0  0  0  0  0  0  0  0  0
    9.2527    1.9687    0.0000 H   0  0  0  0  0  0  0  0  0  0  0  0
   11.6506    3.4149    0.0000 H   0  0  0  0  0  0  0  0  0  0  0  0
   11.0574    2.8826    0.0000 H   0  0  0  0  0  0  0  0  0  0  0  0
    8.0131    3.3832    0.0000 H   0  0  0  0  0  0  0  0  0  0  0  0
    7.3931    4.0032    0.0000 H   0  0  0  0  0  0  0  0  0  0  0  0
    6.7731    3.3832    0.0000 H   0  0  0  0  0  0  0  0  0  0  0  0
    9.7264   -4.6786    0.0000 H   0  0  0  0  0  0  0  0  0  0  0  0
   10.5707   -4.4419    0.0000 H   0  0  0  0  0  0  0  0  0  0  0  0
   10.3340   -3.5976    0.0000 H   0  0  0  0  0  0  0  0  0  0  0  0
    1.6921   -2.1243    0.0000 H   0  0  0  0  0  0  0  0  0  0  0  0
    1.4619   -2.9704    0.0000 H   0  0  0  0  0  0  0  0  0  0  0  0
    2.3079   -3.2006    0.0000 H   0  0  0  0  0  0  0  0  0  0  0  0
   14.0667    3.5515    0.0000 H   0  0  0  0  0  0  0  0  0  0  0  0
   14.5455    4.2860    0.0000 H   0  0  0  0  0  0  0  0  0  0  0  0
   13.8110    4.7648    0.0000 H   0  0  0  0  0  0  0  0  0  0  0  0
  1 15  1  0  0  0  0
  1 31  1  0  0  0  0
  2 18  1  0  0  0  0
  2 33  1  0  0  0  0
  3 28  1  0  0  0  0
  3 35  1  0  0  0  0
  4 31  2  0  0  0  0
  5 33  2  0  0  0  0
  6 37  1  0  0  0  0
  6 39  1  0  0  0  0
  7 35  2  0  0  0  0
  8 37  2  0  0  0  0
  9 10  1  0  0  0  0
  9 14  1  0  0  0  0
  9 15  1  0  0  0  0
  9 23  1  0  0  0  0
 10 11  1  0  0  0  0
 10 19  1  0  0  0  0
 10 40  1  0  0  0  0
 11 12  1  0  0  0  0
 11 18  1  0  0  0  0
 11 41  1  0  0  0  0
 12 13  1  0  0  0  0
 12 16  1  0  0  0  0
 12 42  1  0  0  0  0
 13 17  1  0  0  0  0
 13 22  1  0  0  0  0
 13 26  1  0  0  0  0
 14 20  1  0  0  0  0
 14 24  1  0  0  0  0
 14 43  1  0  0  0  0
 15 16  1  0  0  0  0
 15 44  1  0  0  0  0
 16 45  1  0  0  0  0
 16 46  1  0  0  0  0
 17 21  1  0  0  0  0
 17 25  1  0  0  0  0
 17 47  1  0  0  0  0
 18 21  1  0  0  0  0
 18 48  1  0  0  0  0
 19 20  1  0  0  0  0
 19 49  1  0  0  0  0
 19 50  1  0  0  0  0
 20 51  1  0  0  0  0
 20 52  1  0  0  0  0
 21 53  1  0  0  0  0
 21 54  1  0  0  0  0
 22 27  1  0  0  0  0
 22 55  1  0  0  0  0
 22 56  1  0  0  0  0
 23 57  1  0  0  0  0
 23 58  1  0  0  0  0
 23 59  1  0  0  0  0
 24 29  1  0  0  0  0
 24 30  1  0  0  0  0
 24 60  1  0  0  0  0
 25 28  1  0  0  0  0
 25 61  1  0  0  0  0
 25 62  1  0  0  0  0
 26 63  1  0  0  0  0
 26 64  1  0  0  0  0
 26 65  1  0  0  0  0
 27 28  1  0  0  0  0
 27 66  1  0  0  0  0
 27 67  1  0  0  0  0
 28 68  1  0  0  0  0
 29 32  1  0  0  0  0
 29 69  1  0  0  0  0
 29 70  1  0  0  0  0
 30 71  1  0  0  0  0
 30 72  1  0  0  0  0
 30 73  1  0  0  0  0
 31 34  1  0  0  0  0
 32 37  1  0  0  0  0
 32 74  1  0  0  0  0
 32 75  1  0  0  0  0
 33 36  1  0  0  0  0
 34 76  1  0  0  0  0
 34 77  1  0  0  0  0
 34 78  1  0  0  0  0
 35 38  1  0  0  0  0
 36 79  1  0  0  0  0
 36 80  1  0  0  0  0
 36 81  1  0  0  0  0
 38 82  1  0  0  0  0
 38 83  1  0  0  0  0
 38 84  1  0  0  0  0
 39 85  1  0  0  0  0
 39 86  1  0  0  0  0
 39 87  1  0  0  0  0
M  END
> <PUBCHEM_COMPOUND_CID>
526670
> <PUBCHEM_COMPOUND_CANONICALIZED>
1
> <PUBCHEM_CACTVS_COMPLEXITY>
962
> <PUBCHEM_CACTVS_HBOND_ACCEPTOR>
8
> <PUBCHEM_CACTVS_HBOND_DONOR>
0
> <PUBCHEM_CACTVS_ROTATABLE_BOND>
11
> <PUBCHEM_CACTVS_SUBSKEYS>
AAADcfB4PAAAAAAAAAAAAAAAAAAAAYAAAAAwYMAAAAAAAGDAAAAAGgAAAAAADxSggAICCAAABAAIAACQCAAAAAAAAAAAAAEAAAAAABIAAAACAAAEAAAAAAGI6PyPgAAAAAAAAADAAAYAADAAAQAACAAAAA==
> <PUBCHEM_IUPAC_OPENEYE_NAME>
methyl 4-(3,7,12-triacetoxy-10,13-dimethyl-2,3,4,5,6,7,8,9,11,12,14,15,16,17-tetradecahydro-1H-cyclopenta[a]phenanthren-17-yl)pentanoate
> <PUBCHEM_IUPAC_CAS_NAME>
4-(3,7,12-triacetyloxy-10,13-dimethyl-2,3,4,5,6,7,8,9,11,12,14,15,16,17-tetradecahydro-1H-cyclopenta[a]phenanthren-17-yl)pentanoic acid methyl ester
> <PUBCHEM_IUPAC_NAME_MARKUP>
methyl 4-(3,7,12-triacetyloxy-10,13-dimethyl-2,3,4,5,6,7,8,9,11,12,14,15,16,17-tetradecahydro-1<I>H</I>-cyclopenta[a]phenanthren-17-yl)pentanoate
> <PUBCHEM_IUPAC_NAME>
methyl 4-(3,7,12-triacetyloxy-10,13-dimethyl-2,3,4,5,6,7,8,9,11,12,14,15,16,17-tetradecahydro-1H-cyclopenta[a]phenanthren-17-yl)pentanoate
> <PUBCHEM_IUPAC_SYSTEMATIC_NAME>
methyl 4-(3,7,12-triacetyloxy-10,13-dimethyl-2,3,4,5,6,7,8,9,11,12,14,15,16,17-tetradecahydro-1H-cyclopenta[a]phenanthren-17-yl)pentanoate
> <PUBCHEM_IUPAC_TRADITIONAL_NAME>
4-(3,7,12-triacetoxy-10,13-dimethyl-2,3,4,5,6,7,8,9,11,12,14,15,16,17-tetradecahydro-1H-cyclopenta[a]phenanthren-17-yl)valeric acid methyl ester
> <PUBCHEM_IUPAC_INCHI>
InChI=1S/C31H48O8/c1-17(8-11-28(35)36-7)23-9-10-24-29-25(16-27(31(23,24)6)39-20(4)34)30(5)13-12-22(37-18(2)32)14-21(30)15-26(29)38-19(3)33/h17,21-27,29H,8-16H2,1-7H3
> <PUBCHEM_IUPAC_INCHIKEY>
VTBGQCBIQJMJJZ-UHFFFAOYSA-N
> <PUBCHEM_XLOGP3_AA>
5.6
> <PUBCHEM_EXACT_MASS>
548.33491849
> <PUBCHEM_MOLECULAR_FORMULA>
C31H48O8
> <PUBCHEM_MOLECULAR_WEIGHT>
548.7
> <PUBCHEM_OPENEYE_CAN_SMILES>
CC(CCC(=O)OC)C1CCC2C1(C(CC3C2C(CC4C3(CCC(C4)OC(=O)C)C)OC(=O)C)OC(=O)C)C
> <PUBCHEM_OPENEYE_ISO_SMILES>
CC(CCC(=O)OC)C1CCC2C1(C(CC3C2C(CC4C3(CCC(C4)OC(=O)C)C)OC(=O)C)OC(=O)C)C
> <PUBCHEM_CACTVS_TPSA>
105
> <PUBCHEM_MONOISOTOPIC_WEIGHT>
548.33491849
> <PUBCHEM_TOTAL_CHARGE>
0
> <PUBCHEM_HEAVY_ATOM_COUNT>
39
> <PUBCHEM_ATOM_DEF_STEREO_COUNT>
0
> <PUBCHEM_ATOM_UDEF_STEREO_COUNT>
11
> <PUBCHEM_BOND_DEF_STEREO_COUNT>
0
> <PUBCHEM_BOND_UDEF_STEREO_COUNT>
0
> <PUBCHEM_ISOTOPIC_ATOM_COUNT>
0
> <PUBCHEM_COMPONENT_COUNT>
1
> <PUBCHEM_CACTVS_TAUTO_COUNT>
-1
> <PUBCHEM_COORDINATE_TYPE>
1
5
255
> <PUBCHEM_BONDANNOTATIONS>
15  1  3
10  19  3
11  18  3
12  16  3
13  26  3
14  20  3
17  25  3
18  2  3
24  30  3
28  3  3
9  23  3
$$$$
