526611
  -OEChem-10302200292D
 27 28  0     1  0  0  0  0  0999 V2000
    2.6176   -1.6964    0.0000 O   0  0  0  0  0  0  0  0  0  0  0  0
    4.6718    0.7678    0.0000 C   0  0  3  0  0  0  0  0  0  0  0  0
    6.0707    0.2590    0.0000 C   0  0  0  0  0  0  0  0  0  0  0  0
    4.4130   -0.1981    0.0000 C   0  0  3  0  0  0  0  0  0  0  0  0
    3.9352    1.7504    0.0000 C   0  0  0  0  0  0  0  0  0  0  0  0
    2.6982    0.1496    0.0000 C   0  0  0  0  0  0  0  0  0  0  0  0
    3.0403   -0.7901    0.0000 C   0  0  3  0  0  0  0  0  0  0  0  0
    5.8119   -0.7069    0.0000 C   0  0  0  0  0  0  0  0  0  0  0  0
    7.0652    0.1545    0.0000 C   0  0  0  0  0  0  0  0  0  0  0  0
    6.4775    1.1726    0.0000 C   0  0  0  0  0  0  0  0  0  0  0  0
    6.3119   -1.5729    0.0000 C   0  0  0  0  0  0  0  0  0  0  0  0
    4.6578    0.1480    0.0000 H   0  0  0  0  0  0  0  0  0  0  0  0
    4.4310   -0.8178    0.0000 H   0  0  0  0  0  0  0  0  0  0  0  0
    4.2530    2.2828    0.0000 H   0  0  0  0  0  0  0  0  0  0  0  0
    3.3220    1.8424    0.0000 H   0  0  0  0  0  0  0  0  0  0  0  0
    2.5040    0.7384    0.0000 H   0  0  0  0  0  0  0  0  0  0  0  0
    2.1125   -0.0536    0.0000 H   0  0  0  0  0  0  0  0  0  0  0  0
    3.4722   -1.2349    0.0000 H   0  0  0  0  0  0  0  0  0  0  0  0
    7.0004   -0.4621    0.0000 H   0  0  0  0  0  0  0  0  0  0  0  0
    7.6818    0.0897    0.0000 H   0  0  0  0  0  0  0  0  0  0  0  0
    7.1300    0.7711    0.0000 H   0  0  0  0  0  0  0  0  0  0  0  0
    7.0439    0.9204    0.0000 H   0  0  0  0  0  0  0  0  0  0  0  0
    6.7296    1.7390    0.0000 H   0  0  0  0  0  0  0  0  0  0  0  0
    5.9111    1.4247    0.0000 H   0  0  0  0  0  0  0  0  0  0  0  0
    6.0019   -2.1099    0.0000 H   0  0  0  0  0  0  0  0  0  0  0  0
    6.9319   -1.5729    0.0000 H   0  0  0  0  0  0  0  0  0  0  0  0
    2.0000   -1.7504    0.0000 H   0  0  0  0  0  0  0  0  0  0  0  0
  1  7  1  0  0  0  0
  1 27  1  0  0  0  0
  2  3  1  0  0  0  0
  2  5  1  0  0  0  0
  2  6  1  0  0  0  0
  2 12  1  0  0  0  0
  3  8  1  0  0  0  0
  3  9  1  0  0  0  0
  3 10  1  0  0  0  0
  4  5  1  0  0  0  0
  4  7  1  0  0  0  0
  4  8  1  0  0  0  0
  4 13  1  0  0  0  0
  5 14  1  0  0  0  0
  5 15  1  0  0  0  0
  6  7  1  0  0  0  0
  6 16  1  0  0  0  0
  6 17  1  0  0  0  0
  7 18  1  0  0  0  0
  8 11  2  0  0  0  0
  9 19  1  0  0  0  0
  9 20  1  0  0  0  0
  9 21  1  0  0  0  0
 10 22  1  0  0  0  0
 10 23  1  0  0  0  0
 10 24  1  0  0  0  0
 11 25  1  0  0  0  0
 11 26  1  0  0  0  0
M  END
> <PUBCHEM_COMPOUND_CID>
526611
> <PUBCHEM_COMPOUND_CANONICALIZED>
1
> <PUBCHEM_CACTVS_COMPLEXITY>
205
> <PUBCHEM_CACTVS_HBOND_ACCEPTOR>
1
> <PUBCHEM_CACTVS_HBOND_DONOR>
1
> <PUBCHEM_CACTVS_ROTATABLE_BOND>
0
> <PUBCHEM_CACTVS_SUBSKEYS>
AAADceBwIAAAAAAAAAAAAAAAAAAAAYMAAAAwAAAAAAAAAAAAAAAAGgAACAAADxSggAICAAAAAgCAAgBCAAAAAAAgAAAAAAAAAAgAEAIAAQAAQAAEwAAAAAGAwPAPgAAAAAAAAABAAAYAADAAAYAADAAAAA==
> <PUBCHEM_IUPAC_OPENEYE_NAME>
5,5-dimethyl-6-methylene-norbornan-2-ol
> <PUBCHEM_IUPAC_CAS_NAME>
5,5-dimethyl-6-methylene-2-bicyclo[2.2.1]heptanol
> <PUBCHEM_IUPAC_NAME_MARKUP>
5,5-dimethyl-6-methylidenebicyclo[2.2.1]heptan-2-ol
> <PUBCHEM_IUPAC_NAME>
5,5-dimethyl-6-methylidenebicyclo[2.2.1]heptan-2-ol
> <PUBCHEM_IUPAC_SYSTEMATIC_NAME>
5,5-dimethyl-6-methylidene-bicyclo[2.2.1]heptan-2-ol
> <PUBCHEM_IUPAC_TRADITIONAL_NAME>
5,5-dimethyl-6-methylene-norbornan-2-ol
> <PUBCHEM_IUPAC_INCHI>
InChI=1S/C10H16O/c1-6-8-4-7(5-9(8)11)10(6,2)3/h7-9,11H,1,4-5H2,2-3H3
> <PUBCHEM_IUPAC_INCHIKEY>
CFXJOMGPUADAJE-UHFFFAOYSA-N
> <PUBCHEM_XLOGP3_AA>
1.8
> <PUBCHEM_EXACT_MASS>
152.120115130
> <PUBCHEM_MOLECULAR_FORMULA>
C10H16O
> <PUBCHEM_MOLECULAR_WEIGHT>
152.23
> <PUBCHEM_OPENEYE_CAN_SMILES>
CC1(C2CC(C1=C)C(C2)O)C
> <PUBCHEM_OPENEYE_ISO_SMILES>
CC1(C2CC(C1=C)C(C2)O)C
> <PUBCHEM_CACTVS_TPSA>
20.2
> <PUBCHEM_MONOISOTOPIC_WEIGHT>
152.120115130
> <PUBCHEM_TOTAL_CHARGE>
0
> <PUBCHEM_HEAVY_ATOM_COUNT>
11
> <PUBCHEM_ATOM_DEF_STEREO_COUNT>
0
> <PUBCHEM_ATOM_UDEF_STEREO_COUNT>
3
> <PUBCHEM_BOND_DEF_STEREO_COUNT>
0
> <PUBCHEM_BOND_UDEF_STEREO_COUNT>
0
> <PUBCHEM_ISOTOPIC_ATOM_COUNT>
0
> <PUBCHEM_COMPONENT_COUNT>
1
> <PUBCHEM_CACTVS_TAUTO_COUNT>
-1
> <PUBCHEM_COORDINATE_TYPE>
1
5
255
> <PUBCHEM_BONDANNOTATIONS>
7  1  3
2  5  3
4  5  3
$$$$
