526629
  -OEChem-10302200292D
 28 28  0     1  0  0  0  0  0999 V2000
    4.9190   -1.1265    0.0000 O   0  0  0  0  0  0  0  0  0  0  0  0
    3.8313    1.2214    0.0000 O   0  0  0  0  0  0  0  0  0  0  0  0
    6.0068    1.2214    0.0000 O   0  0  0  0  0  0  0  0  0  0  0  0
    2.9511   -1.8259    0.0000 O   0  0  0  0  0  0  0  0  0  0  0  0
    4.4190    0.4123    0.0000 C   0  0  3  0  0  0  0  0  0  0  0  0
    4.1100   -0.5387    0.0000 C   0  0  3  0  0  0  0  0  0  0  0  0
    5.4190    0.4123    0.0000 C   0  0  3  0  0  0  0  0  0  0  0  0
    5.7281   -0.5387    0.0000 C   0  0  0  0  0  0  0  0  0  0  0  0
    3.1590   -0.8477    0.0000 C   0  0  0  0  0  0  0  0  0  0  0  0
    4.2380    2.1349    0.0000 C   0  0  0  0  0  0  0  0  0  0  0  0
    7.0014    1.1168    0.0000 C   0  0  0  0  0  0  0  0  0  0  0  0
    2.0000   -2.1349    0.0000 C   0  0  0  0  0  0  0  0  0  0  0  0
    3.8067    0.3153    0.0000 H   0  0  0  0  0  0  0  0  0  0  0  0
    4.0130   -1.1511    0.0000 H   0  0  0  0  0  0  0  0  0  0  0  0
    5.1376    0.9648    0.0000 H   0  0  0  0  0  0  0  0  0  0  0  0
    6.0381   -1.0756    0.0000 H   0  0  0  0  0  0  0  0  0  0  0  0
    6.2945   -0.2865    0.0000 H   0  0  0  0  0  0  0  0  0  0  0  0
    3.0727   -0.2338    0.0000 H   0  0  0  0  0  0  0  0  0  0  0  0
    2.5394   -0.8261    0.0000 H   0  0  0  0  0  0  0  0  0  0  0  0
    4.8044    1.8827    0.0000 H   0  0  0  0  0  0  0  0  0  0  0  0
    4.4902    2.7013    0.0000 H   0  0  0  0  0  0  0  0  0  0  0  0
    3.6716    2.3871    0.0000 H   0  0  0  0  0  0  0  0  0  0  0  0
    6.9365    0.5002    0.0000 H   0  0  0  0  0  0  0  0  0  0  0  0
    7.6180    1.0520    0.0000 H   0  0  0  0  0  0  0  0  0  0  0  0
    7.0662    1.7334    0.0000 H   0  0  0  0  0  0  0  0  0  0  0  0
    1.8084   -1.5452    0.0000 H   0  0  0  0  0  0  0  0  0  0  0  0
    1.4103   -2.3265    0.0000 H   0  0  0  0  0  0  0  0  0  0  0  0
    2.1916   -2.7246    0.0000 H   0  0  0  0  0  0  0  0  0  0  0  0
  1  6  1  0  0  0  0
  1  8  1  0  0  0  0
  2  5  1  0  0  0  0
  2 10  1  0  0  0  0
  3  7  1  0  0  0  0
  3 11  1  0  0  0  0
  4  9  1  0  0  0  0
  4 12  1  0  0  0  0
  5  6  1  0  0  0  0
  5  7  1  0  0  0  0
  5 13  1  0  0  0  0
  6  9  1  0  0  0  0
  6 14  1  0  0  0  0
  7  8  1  0  0  0  0
  7 15  1  0  0  0  0
  8 16  1  0  0  0  0
  8 17  1  0  0  0  0
  9 18  1  0  0  0  0
  9 19  1  0  0  0  0
 10 20  1  0  0  0  0
 10 21  1  0  0  0  0
 10 22  1  0  0  0  0
 11 23  1  0  0  0  0
 11 24  1  0  0  0  0
 11 25  1  0  0  0  0
 12 26  1  0  0  0  0
 12 27  1  0  0  0  0
 12 28  1  0  0  0  0
M  END
> <PUBCHEM_COMPOUND_CID>
526629
> <PUBCHEM_COMPOUND_CANONICALIZED>
1
> <PUBCHEM_CACTVS_COMPLEXITY>
128
> <PUBCHEM_CACTVS_HBOND_ACCEPTOR>
4
> <PUBCHEM_CACTVS_HBOND_DONOR>
0
> <PUBCHEM_CACTVS_ROTATABLE_BOND>
4
> <PUBCHEM_CACTVS_SUBSKEYS>
AAADceBwOAAAAAAAAAAAAAAAAAAAASAAAAAAAAAAAAAAAAAAAAAAGgAAAAAACBSggAICAAAABAAAAAAAAAAAAAAAAAAAAAAAAAABAAIAAAACAAAFAAACAADAIAgAAAAAAAAAAAAAAAAAAAAAAAAAAAAAAA==
> <PUBCHEM_IUPAC_OPENEYE_NAME>
3,4-dimethoxy-2-(methoxymethyl)tetrahydrofuran
> <PUBCHEM_IUPAC_CAS_NAME>
3,4-dimethoxy-2-(methoxymethyl)oxolane
> <PUBCHEM_IUPAC_NAME_MARKUP>
3,4-dimethoxy-2-(methoxymethyl)oxolane
> <PUBCHEM_IUPAC_NAME>
3,4-dimethoxy-2-(methoxymethyl)oxolane
> <PUBCHEM_IUPAC_SYSTEMATIC_NAME>
3,4-dimethoxy-2-(methoxymethyl)oxolane
> <PUBCHEM_IUPAC_TRADITIONAL_NAME>
3,4-dimethoxy-2-(methoxymethyl)tetrahydrofuran
> <PUBCHEM_IUPAC_INCHI>
InChI=1S/C8H16O4/c1-9-4-7-8(11-3)6(10-2)5-12-7/h6-8H,4-5H2,1-3H3
> <PUBCHEM_IUPAC_INCHIKEY>
PFPWLRZFWHVNMO-UHFFFAOYSA-N
> <PUBCHEM_XLOGP3_AA>
-0.4
> <PUBCHEM_EXACT_MASS>
176.10485899
> <PUBCHEM_MOLECULAR_FORMULA>
C8H16O4
> <PUBCHEM_MOLECULAR_WEIGHT>
176.21
> <PUBCHEM_OPENEYE_CAN_SMILES>
COCC1C(C(CO1)OC)OC
> <PUBCHEM_OPENEYE_ISO_SMILES>
COCC1C(C(CO1)OC)OC
> <PUBCHEM_CACTVS_TPSA>
36.9
> <PUBCHEM_MONOISOTOPIC_WEIGHT>
176.10485899
> <PUBCHEM_TOTAL_CHARGE>
0
> <PUBCHEM_HEAVY_ATOM_COUNT>
12
> <PUBCHEM_ATOM_DEF_STEREO_COUNT>
0
> <PUBCHEM_ATOM_UDEF_STEREO_COUNT>
3
> <PUBCHEM_BOND_DEF_STEREO_COUNT>
0
> <PUBCHEM_BOND_UDEF_STEREO_COUNT>
0
> <PUBCHEM_ISOTOPIC_ATOM_COUNT>
0
> <PUBCHEM_COMPONENT_COUNT>
1
> <PUBCHEM_CACTVS_TAUTO_COUNT>
-1
> <PUBCHEM_COORDINATE_TYPE>
1
5
255
> <PUBCHEM_BONDANNOTATIONS>
5  2  3
7  3  3
6  9  3
$$$$
