526687
  -OEChem-10302200292D
 37 39  0     1  0  0  0  0  0999 V2000
    4.5037   -0.8508    0.0000 C   0  0  3  0  0  0  0  0  0  0  0  0
    5.3302   -1.4146    0.0000 C   0  0  0  0  0  0  0  0  0  0  0  0
    5.4047   -0.4169    0.0000 C   0  0  3  0  0  0  0  0  0  0  0  0
    3.6027   -0.4169    0.0000 C   0  0  3  0  0  0  0  0  0  0  0  0
    3.3802    0.5580    0.0000 C   0  0  3  0  0  0  0  0  0  0  0  0
    2.7480   -0.9246    0.0000 C   0  0  3  0  0  0  0  0  0  0  0  0
    6.3274   -1.4893    0.0000 C   0  0  0  0  0  0  0  0  0  0  0  0
    4.7668   -2.2408    0.0000 C   0  0  0  0  0  0  0  0  0  0  0  0
    2.3899    0.6446    0.0000 C   0  0  0  0  0  0  0  0  0  0  0  0
    2.0000   -0.2699    0.0000 C   0  0  0  0  0  0  0  0  0  0  0  0
    5.6272    0.5580    0.0000 C   0  0  0  0  0  0  0  0  0  0  0  0
    4.0037    1.3398    0.0000 C   0  0  0  0  0  0  0  0  0  0  0  0
    5.0037    1.3398    0.0000 C   0  0  0  0  0  0  0  0  0  0  0  0
    2.6567   -1.9204    0.0000 C   0  0  0  0  0  0  0  0  0  0  0  0
    3.5698    2.2408    0.0000 C   0  0  0  0  0  0  0  0  0  0  0  0
    4.1936   -1.3877    0.0000 H   0  0  0  0  0  0  0  0  0  0  0  0
    6.0178   -0.5092    0.0000 H   0  0  0  0  0  0  0  0  0  0  0  0
    3.6298   -1.0363    0.0000 H   0  0  0  0  0  0  0  0  0  0  0  0
    3.1358    1.1278    0.0000 H   0  0  0  0  0  0  0  0  0  0  0  0
    3.2723   -1.2556    0.0000 H   0  0  0  0  0  0  0  0  0  0  0  0
    6.2810   -2.1076    0.0000 H   0  0  0  0  0  0  0  0  0  0  0  0
    6.9456   -1.5356    0.0000 H   0  0  0  0  0  0  0  0  0  0  0  0
    6.3737   -0.8710    0.0000 H   0  0  0  0  0  0  0  0  0  0  0  0
    4.2546   -1.8916    0.0000 H   0  0  0  0  0  0  0  0  0  0  0  0
    4.4176   -2.7531    0.0000 H   0  0  0  0  0  0  0  0  0  0  0  0
    5.2791   -2.5901    0.0000 H   0  0  0  0  0  0  0  0  0  0  0  0
    2.5085    1.2531    0.0000 H   0  0  0  0  0  0  0  0  0  0  0  0
    1.7972    0.8264    0.0000 H   0  0  0  0  0  0  0  0  0  0  0  0
    1.4584    0.0319    0.0000 H   0  0  0  0  0  0  0  0  0  0  0  0
    1.6430   -0.7768    0.0000 H   0  0  0  0  0  0  0  0  0  0  0  0
    6.2316    0.6960    0.0000 H   0  0  0  0  0  0  0  0  0  0  0  0
    5.2727    1.8984    0.0000 H   0  0  0  0  0  0  0  0  0  0  0  0
    2.0393   -1.8637    0.0000 H   0  0  0  0  0  0  0  0  0  0  0  0
    2.6000   -2.5378    0.0000 H   0  0  0  0  0  0  0  0  0  0  0  0
    3.2741   -1.9770    0.0000 H   0  0  0  0  0  0  0  0  0  0  0  0
    3.9191    2.7531    0.0000 H   0  0  0  0  0  0  0  0  0  0  0  0
    2.9516    2.2872    0.0000 H   0  0  0  0  0  0  0  0  0  0  0  0
  1  2  1  0  0  0  0
  1  3  1  0  0  0  0
  1  4  1  0  0  0  0
  1 16  1  0  0  0  0
  2  3  1  0  0  0  0
  2  7  1  0  0  0  0
  2  8  1  0  0  0  0
  3 11  1  0  0  0  0
  3 17  1  0  0  0  0
  4  5  1  0  0  0  0
  4  6  1  0  0  0  0
  4 18  1  0  0  0  0
  5  9  1  0  0  0  0
  5 12  1  0  0  0  0
  5 19  1  0  0  0  0
  6 10  1  0  0  0  0
  6 14  1  0  0  0  0
  6 20  1  0  0  0  0
  7 21  1  0  0  0  0
  7 22  1  0  0  0  0
  7 23  1  0  0  0  0
  8 24  1  0  0  0  0
  8 25  1  0  0  0  0
  8 26  1  0  0  0  0
  9 10  1  0  0  0  0
  9 27  1  0  0  0  0
  9 28  1  0  0  0  0
 10 29  1  0  0  0  0
 10 30  1  0  0  0  0
 11 13  2  0  0  0  0
 11 31  1  0  0  0  0
 12 13  1  0  0  0  0
 12 15  2  0  0  0  0
 13 32  1  0  0  0  0
 14 33  1  0  0  0  0
 14 34  1  0  0  0  0
 14 35  1  0  0  0  0
 15 36  1  0  0  0  0
 15 37  1  0  0  0  0
M  END
> <PUBCHEM_COMPOUND_CID>
526687
> <PUBCHEM_COMPOUND_CANONICALIZED>
1
> <PUBCHEM_CACTVS_COMPLEXITY>
334
> <PUBCHEM_CACTVS_HBOND_ACCEPTOR>
0
> <PUBCHEM_CACTVS_HBOND_DONOR>
0
> <PUBCHEM_CACTVS_ROTATABLE_BOND>
0
> <PUBCHEM_CACTVS_SUBSKEYS>
AAADceBwAAAAAAAAAAAAAAAAGAAAAYAAAAAAAAAABAAQAACAAAAAGAAAAAAADwCAAAACAAAAAACAAiBCAAAAAAAgAAAICAAAAAgIAAIAAQAAAAAAgAAIgAMAgMAPgAAAAAAAAAAAAAAAAAAAAQAACAAAAA==
> <PUBCHEM_IUPAC_OPENEYE_NAME>
1,1,7-trimethyl-4-methylene-4a,5,6,7,7a,7b-hexahydro-1aH-cyclopropa[e]azulene
> <PUBCHEM_IUPAC_CAS_NAME>
1,1,7-trimethyl-4-methylene-4a,5,6,7,7a,7b-hexahydro-1aH-cyclopropa[e]azulene
> <PUBCHEM_IUPAC_NAME_MARKUP>
1,1,7-trimethyl-4-methylidene-4<I>a</I>,5,6,7,7<I>a</I>,7<I>b</I>-hexahydro-1<I>a</I><I>H</I>-cyclopropa[e]azulene
> <PUBCHEM_IUPAC_NAME>
1,1,7-trimethyl-4-methylidene-4a,5,6,7,7a,7b-hexahydro-1aH-cyclopropa[e]azulene
> <PUBCHEM_IUPAC_SYSTEMATIC_NAME>
1,1,7-trimethyl-4-methylidene-4a,5,6,7,7a,7b-hexahydro-1aH-cyclopropa[e]azulene
> <PUBCHEM_IUPAC_TRADITIONAL_NAME>
1,1,7-trimethyl-4-methylene-4a,5,6,7,7a,7b-hexahydro-1aH-cycloprop[e]azulene
> <PUBCHEM_IUPAC_INCHI>
InChI=1S/C15H22/c1-9-6-8-12-14(15(12,3)4)13-10(2)5-7-11(9)13/h6,8,10-14H,1,5,7H2,2-4H3
> <PUBCHEM_IUPAC_INCHIKEY>
OXBYVYGWWRTWMD-UHFFFAOYSA-N
> <PUBCHEM_XLOGP3_AA>
4.5
> <PUBCHEM_EXACT_MASS>
202.172150702
> <PUBCHEM_MOLECULAR_FORMULA>
C15H22
> <PUBCHEM_MOLECULAR_WEIGHT>
202.33
> <PUBCHEM_OPENEYE_CAN_SMILES>
CC1CCC2C1C3C(C3(C)C)C=CC2=C
> <PUBCHEM_OPENEYE_ISO_SMILES>
CC1CCC2C1C3C(C3(C)C)C=CC2=C
> <PUBCHEM_CACTVS_TPSA>
0
> <PUBCHEM_MONOISOTOPIC_WEIGHT>
202.172150702
> <PUBCHEM_TOTAL_CHARGE>
0
> <PUBCHEM_HEAVY_ATOM_COUNT>
15
> <PUBCHEM_ATOM_DEF_STEREO_COUNT>
0
> <PUBCHEM_ATOM_UDEF_STEREO_COUNT>
5
> <PUBCHEM_BOND_DEF_STEREO_COUNT>
0
> <PUBCHEM_BOND_UDEF_STEREO_COUNT>
0
> <PUBCHEM_ISOTOPIC_ATOM_COUNT>
0
> <PUBCHEM_COMPONENT_COUNT>
1
> <PUBCHEM_CACTVS_TAUTO_COUNT>
-1
> <PUBCHEM_COORDINATE_TYPE>
1
5
255
> <PUBCHEM_BONDANNOTATIONS>
1  2  3
3  11  3
4  6  3
5  9  3
6  14  3
$$$$
