526641
  -OEChem-10302200292D
 33 33  0     1  0  0  0  0  0999 V2000
    5.9543   -1.3258    0.0000 O   0  0  0  0  0  0  0  0  0  0  0  0
    5.4543    1.2130    0.0000 O   0  0  0  0  0  0  0  0  0  0  0  0
    3.6942   -0.0657    0.0000 O   0  0  0  0  0  0  0  0  0  0  0  0
    7.9575   -0.7349    0.0000 O   0  0  0  0  0  0  0  0  0  0  0  0
    3.1590   -1.7130    0.0000 O   0  0  0  0  0  0  0  0  0  0  0  0
    6.2633   -0.3748    0.0000 C   0  0  3  0  0  0  0  0  0  0  0  0
    5.4543    0.2130    0.0000 C   0  0  3  0  0  0  0  0  0  0  0  0
    4.6453   -0.3748    0.0000 C   0  0  3  0  0  0  0  0  0  0  0  0
    4.9543   -1.3258    0.0000 C   0  0  0  0  0  0  0  0  0  0  0  0
    7.2144   -0.0657    0.0000 C   0  0  3  0  0  0  0  0  0  0  0  0
    7.4223    0.9124    0.0000 C   0  0  0  0  0  0  0  0  0  0  0  0
    4.5883    1.7130    0.0000 C   0  0  0  0  0  0  0  0  0  0  0  0
    2.9511   -0.7349    0.0000 C   0  0  0  0  0  0  0  0  0  0  0  0
    8.9086   -0.4259    0.0000 C   0  0  0  0  0  0  0  0  0  0  0  0
    2.0000   -0.4259    0.0000 C   0  0  0  0  0  0  0  0  0  0  0  0
    6.7017   -0.8132    0.0000 H   0  0  0  0  0  0  0  0  0  0  0  0
    4.9018    0.4945    0.0000 H   0  0  0  0  0  0  0  0  0  0  0  0
    4.5483    0.2376    0.0000 H   0  0  0  0  0  0  0  0  0  0  0  0
    4.3478   -1.4547    0.0000 H   0  0  0  0  0  0  0  0  0  0  0  0
    5.0191   -1.9424    0.0000 H   0  0  0  0  0  0  0  0  0  0  0  0
    7.0854   -0.6722    0.0000 H   0  0  0  0  0  0  0  0  0  0  0  0
    8.0287    0.7835    0.0000 H   0  0  0  0  0  0  0  0  0  0  0  0
    7.5512    1.5188    0.0000 H   0  0  0  0  0  0  0  0  0  0  0  0
    6.8158    1.0413    0.0000 H   0  0  0  0  0  0  0  0  0  0  0  0
    4.8982    2.2500    0.0000 H   0  0  0  0  0  0  0  0  0  0  0  0
    4.0513    2.0230    0.0000 H   0  0  0  0  0  0  0  0  0  0  0  0
    4.2782    1.1761    0.0000 H   0  0  0  0  0  0  0  0  0  0  0  0
    9.1001   -1.0155    0.0000 H   0  0  0  0  0  0  0  0  0  0  0  0
    9.4982   -0.2343    0.0000 H   0  0  0  0  0  0  0  0  0  0  0  0
    8.7170    0.1638    0.0000 H   0  0  0  0  0  0  0  0  0  0  0  0
    2.1916    0.1638    0.0000 H   0  0  0  0  0  0  0  0  0  0  0  0
    1.4103   -0.2343    0.0000 H   0  0  0  0  0  0  0  0  0  0  0  0
    1.8084   -1.0155    0.0000 H   0  0  0  0  0  0  0  0  0  0  0  0
  1  6  1  0  0  0  0
  1  9  1  0  0  0  0
  2  7  1  0  0  0  0
  2 12  1  0  0  0  0
  3  8  1  0  0  0  0
  3 13  1  0  0  0  0
  4 10  1  0  0  0  0
  4 14  1  0  0  0  0
  5 13  2  0  0  0  0
  6  7  1  0  0  0  0
  6 10  1  0  0  0  0
  6 16  1  0  0  0  0
  7  8  1  0  0  0  0
  7 17  1  0  0  0  0
  8  9  1  0  0  0  0
  8 18  1  0  0  0  0
  9 19  1  0  0  0  0
  9 20  1  0  0  0  0
 10 11  1  0  0  0  0
 10 21  1  0  0  0  0
 11 22  1  0  0  0  0
 11 23  1  0  0  0  0
 11 24  1  0  0  0  0
 12 25  1  0  0  0  0
 12 26  1  0  0  0  0
 12 27  1  0  0  0  0
 13 15  1  0  0  0  0
 14 28  1  0  0  0  0
 14 29  1  0  0  0  0
 14 30  1  0  0  0  0
 15 31  1  0  0  0  0
 15 32  1  0  0  0  0
 15 33  1  0  0  0  0
M  END
> <PUBCHEM_COMPOUND_CID>
526641
> <PUBCHEM_COMPOUND_CANONICALIZED>
1
> <PUBCHEM_CACTVS_COMPLEXITY>
218
> <PUBCHEM_CACTVS_HBOND_ACCEPTOR>
5
> <PUBCHEM_CACTVS_HBOND_DONOR>
0
> <PUBCHEM_CACTVS_ROTATABLE_BOND>
5
> <PUBCHEM_CACTVS_SUBSKEYS>
AAADceBwOAAAAAAAAAAAAAAAAAAAASAAAAAAAAAAAAAAAAAAAAAAGgAAAAAACBSggAICCAAABAAIAACQCAAAAAAAAAAAAAAAAAABAAIAAAACAAAFAAACAAHAYAwAAAAAAAAAAAAAAAAAAAAAAAAAAAAAAA==
> <PUBCHEM_IUPAC_OPENEYE_NAME>
[4-methoxy-5-(1-methoxyethyl)tetrahydrofuran-3-yl] acetate
> <PUBCHEM_IUPAC_CAS_NAME>
acetic acid [4-methoxy-5-(1-methoxyethyl)-3-oxolanyl] ester
> <PUBCHEM_IUPAC_NAME_MARKUP>
[4-methoxy-5-(1-methoxyethyl)oxolan-3-yl] acetate
> <PUBCHEM_IUPAC_NAME>
[4-methoxy-5-(1-methoxyethyl)oxolan-3-yl] acetate
> <PUBCHEM_IUPAC_SYSTEMATIC_NAME>
[4-methoxy-5-(1-methoxyethyl)oxolan-3-yl] ethanoate
> <PUBCHEM_IUPAC_TRADITIONAL_NAME>
acetic acid [4-methoxy-5-(1-methoxyethyl)tetrahydrofuran-3-yl] ester
> <PUBCHEM_IUPAC_INCHI>
InChI=1S/C10H18O5/c1-6(12-3)9-10(13-4)8(5-14-9)15-7(2)11/h6,8-10H,5H2,1-4H3
> <PUBCHEM_IUPAC_INCHIKEY>
JFCWMAVDBHFOCC-UHFFFAOYSA-N
> <PUBCHEM_XLOGP3_AA>
0.1
> <PUBCHEM_EXACT_MASS>
218.11542367
> <PUBCHEM_MOLECULAR_FORMULA>
C10H18O5
> <PUBCHEM_MOLECULAR_WEIGHT>
218.25
> <PUBCHEM_OPENEYE_CAN_SMILES>
CC(C1C(C(CO1)OC(=O)C)OC)OC
> <PUBCHEM_OPENEYE_ISO_SMILES>
CC(C1C(C(CO1)OC(=O)C)OC)OC
> <PUBCHEM_CACTVS_TPSA>
54
> <PUBCHEM_MONOISOTOPIC_WEIGHT>
218.11542367
> <PUBCHEM_TOTAL_CHARGE>
0
> <PUBCHEM_HEAVY_ATOM_COUNT>
15
> <PUBCHEM_ATOM_DEF_STEREO_COUNT>
0
> <PUBCHEM_ATOM_UDEF_STEREO_COUNT>
4
> <PUBCHEM_BOND_DEF_STEREO_COUNT>
0
> <PUBCHEM_BOND_UDEF_STEREO_COUNT>
0
> <PUBCHEM_ISOTOPIC_ATOM_COUNT>
0
> <PUBCHEM_COMPONENT_COUNT>
1
> <PUBCHEM_CACTVS_TAUTO_COUNT>
-1
> <PUBCHEM_COORDINATE_TYPE>
1
5
255
> <PUBCHEM_BONDANNOTATIONS>
6  1  3
10  11  3
7  2  3
8  3  3
$$$$
