526644
  -OEChem-10302200292D
 33 33  0     1  0  0  0  0  0999 V2000
    5.3122   -0.4571    0.0000 O   0  0  0  0  0  0  0  0  0  0  0  0
    2.7431   -0.1481    0.0000 O   0  0  0  0  0  0  0  0  0  0  0  0
    3.4154   -2.2172    0.0000 O   0  0  0  0  0  0  0  0  0  0  0  0
    5.3692    1.6307    0.0000 O   0  0  0  0  0  0  0  0  0  0  0  0
    4.5032    3.1307    0.0000 O   0  0  0  0  0  0  0  0  0  0  0  0
    4.5032    0.1307    0.0000 C   0  0  3  0  0  0  0  0  0  0  0  0
    3.6942   -0.4571    0.0000 C   0  0  3  0  0  0  0  0  0  0  0  0
    4.0032   -1.4081    0.0000 C   0  0  3  0  0  0  0  0  0  0  0  0
    5.0032   -1.4081    0.0000 C   0  0  0  0  0  0  0  0  0  0  0  0
    4.5032    1.1307    0.0000 C   0  0  3  0  0  0  0  0  0  0  0  0
    3.6372    1.6307    0.0000 C   0  0  0  0  0  0  0  0  0  0  0  0
    2.0000   -0.8172    0.0000 C   0  0  0  0  0  0  0  0  0  0  0  0
    3.8222   -3.1307    0.0000 C   0  0  0  0  0  0  0  0  0  0  0  0
    5.3692    2.6307    0.0000 C   0  0  0  0  0  0  0  0  0  0  0  0
    6.2353    3.1307    0.0000 C   0  0  0  0  0  0  0  0  0  0  0  0
    5.0556    0.4122    0.0000 H   0  0  0  0  0  0  0  0  0  0  0  0
    3.5972    0.1553    0.0000 H   0  0  0  0  0  0  0  0  0  0  0  0
    3.3908   -1.3112    0.0000 H   0  0  0  0  0  0  0  0  0  0  0  0
    4.9384   -2.0247    0.0000 H   0  0  0  0  0  0  0  0  0  0  0  0
    5.6097   -1.5370    0.0000 H   0  0  0  0  0  0  0  0  0  0  0  0
    5.0402    0.8207    0.0000 H   0  0  0  0  0  0  0  0  0  0  0  0
    3.9472    2.1676    0.0000 H   0  0  0  0  0  0  0  0  0  0  0  0
    3.1003    1.9407    0.0000 H   0  0  0  0  0  0  0  0  0  0  0  0
    3.3272    1.0938    0.0000 H   0  0  0  0  0  0  0  0  0  0  0  0
    1.5851   -0.3564    0.0000 H   0  0  0  0  0  0  0  0  0  0  0  0
    1.5392   -1.2321    0.0000 H   0  0  0  0  0  0  0  0  0  0  0  0
    2.4149   -1.2780    0.0000 H   0  0  0  0  0  0  0  0  0  0  0  0
    3.2558   -3.3829    0.0000 H   0  0  0  0  0  0  0  0  0  0  0  0
    4.0744   -3.6971    0.0000 H   0  0  0  0  0  0  0  0  0  0  0  0
    4.3886   -2.8785    0.0000 H   0  0  0  0  0  0  0  0  0  0  0  0
    6.5453    2.5938    0.0000 H   0  0  0  0  0  0  0  0  0  0  0  0
    6.7722    3.4407    0.0000 H   0  0  0  0  0  0  0  0  0  0  0  0
    5.9253    3.6676    0.0000 H   0  0  0  0  0  0  0  0  0  0  0  0
  1  6  1  0  0  0  0
  1  9  1  0  0  0  0
  2  7  1  0  0  0  0
  2 12  1  0  0  0  0
  3  8  1  0  0  0  0
  3 13  1  0  0  0  0
  4 10  1  0  0  0  0
  4 14  1  0  0  0  0
  5 14  2  0  0  0  0
  6  7  1  0  0  0  0
  6 10  1  0  0  0  0
  6 16  1  0  0  0  0
  7  8  1  0  0  0  0
  7 17  1  0  0  0  0
  8  9  1  0  0  0  0
  8 18  1  0  0  0  0
  9 19  1  0  0  0  0
  9 20  1  0  0  0  0
 10 11  1  0  0  0  0
 10 21  1  0  0  0  0
 11 22  1  0  0  0  0
 11 23  1  0  0  0  0
 11 24  1  0  0  0  0
 12 25  1  0  0  0  0
 12 26  1  0  0  0  0
 12 27  1  0  0  0  0
 13 28  1  0  0  0  0
 13 29  1  0  0  0  0
 13 30  1  0  0  0  0
 14 15  1  0  0  0  0
 15 31  1  0  0  0  0
 15 32  1  0  0  0  0
 15 33  1  0  0  0  0
M  END
> <PUBCHEM_COMPOUND_CID>
526644
> <PUBCHEM_COMPOUND_CANONICALIZED>
1
> <PUBCHEM_CACTVS_COMPLEXITY>
218
> <PUBCHEM_CACTVS_HBOND_ACCEPTOR>
5
> <PUBCHEM_CACTVS_HBOND_DONOR>
0
> <PUBCHEM_CACTVS_ROTATABLE_BOND>
5
> <PUBCHEM_CACTVS_SUBSKEYS>
AAADceBwOAAAAAAAAAAAAAAAAAAAASAAAAAAAAAAAAAAAAAAAAAAGgAAAAAACBSggAICCAAABAAIAACQCAAAAAAAAAAAAAAAAAABAAIAAAACAAAFAAACAAHAYAwAAAAAAAAAAAAAAAAAAAAAAAAAAAAAAA==
> <PUBCHEM_IUPAC_OPENEYE_NAME>
1-(3,4-dimethoxytetrahydrofuran-2-yl)ethyl acetate
> <PUBCHEM_IUPAC_CAS_NAME>
acetic acid 1-(3,4-dimethoxy-2-oxolanyl)ethyl ester
> <PUBCHEM_IUPAC_NAME_MARKUP>
1-(3,4-dimethoxyoxolan-2-yl)ethyl acetate
> <PUBCHEM_IUPAC_NAME>
1-(3,4-dimethoxyoxolan-2-yl)ethyl acetate
> <PUBCHEM_IUPAC_SYSTEMATIC_NAME>
1-(3,4-dimethoxyoxolan-2-yl)ethyl ethanoate
> <PUBCHEM_IUPAC_TRADITIONAL_NAME>
acetic acid 1-(3,4-dimethoxytetrahydrofuran-2-yl)ethyl ester
> <PUBCHEM_IUPAC_INCHI>
InChI=1S/C10H18O5/c1-6(15-7(2)11)9-10(13-4)8(12-3)5-14-9/h6,8-10H,5H2,1-4H3
> <PUBCHEM_IUPAC_INCHIKEY>
DOZOQRIDOIDCSF-UHFFFAOYSA-N
> <PUBCHEM_XLOGP3_AA>
0.1
> <PUBCHEM_EXACT_MASS>
218.11542367
> <PUBCHEM_MOLECULAR_FORMULA>
C10H18O5
> <PUBCHEM_MOLECULAR_WEIGHT>
218.25
> <PUBCHEM_OPENEYE_CAN_SMILES>
CC(C1C(C(CO1)OC)OC)OC(=O)C
> <PUBCHEM_OPENEYE_ISO_SMILES>
CC(C1C(C(CO1)OC)OC)OC(=O)C
> <PUBCHEM_CACTVS_TPSA>
54
> <PUBCHEM_MONOISOTOPIC_WEIGHT>
218.11542367
> <PUBCHEM_TOTAL_CHARGE>
0
> <PUBCHEM_HEAVY_ATOM_COUNT>
15
> <PUBCHEM_ATOM_DEF_STEREO_COUNT>
0
> <PUBCHEM_ATOM_UDEF_STEREO_COUNT>
4
> <PUBCHEM_BOND_DEF_STEREO_COUNT>
0
> <PUBCHEM_BOND_UDEF_STEREO_COUNT>
0
> <PUBCHEM_ISOTOPIC_ATOM_COUNT>
0
> <PUBCHEM_COMPONENT_COUNT>
1
> <PUBCHEM_CACTVS_TAUTO_COUNT>
-1
> <PUBCHEM_COORDINATE_TYPE>
1
5
255
> <PUBCHEM_BONDANNOTATIONS>
6  1  3
10  11  3
7  2  3
8  3  3
$$$$
