526609
  -OEChem-10302200292D
 37 37  0     1  0  0  0  0  0999 V2000
    5.4641   -1.2500    0.0000 O   0  0  0  0  0  0  0  0  0  0  0  0
    2.8660    0.2500    0.0000 O   0  0  0  0  0  0  0  0  0  0  0  0
    4.5981    1.2500    0.0000 O   0  0  0  0  0  0  0  0  0  0  0  0
    2.8660   -1.7500    0.0000 O   0  0  0  0  0  0  0  0  0  0  0  0
    7.1962   -0.2500    0.0000 O   0  0  0  0  0  0  0  0  0  0  0  0
    6.3301    1.2500    0.0000 O   0  0  0  0  0  0  0  0  0  0  0  0
    4.5981    0.2500    0.0000 C   0  0  3  0  0  0  0  0  0  0  0  0
    3.7320   -0.2500    0.0000 C   0  0  3  0  0  0  0  0  0  0  0  0
    5.4641   -0.2500    0.0000 C   0  0  3  0  0  0  0  0  0  0  0  0
    3.7320   -1.2500    0.0000 C   0  0  3  0  0  0  0  0  0  0  0  0
    4.5981   -1.7500    0.0000 C   0  0  0  0  0  0  0  0  0  0  0  0
    6.3301    0.2500    0.0000 C   0  0  0  0  0  0  0  0  0  0  0  0
    2.0000   -0.2500    0.0000 C   0  0  0  0  0  0  0  0  0  0  0  0
    5.4641    1.7500    0.0000 C   0  0  0  0  0  0  0  0  0  0  0  0
    2.8660   -2.7500    0.0000 C   0  0  0  0  0  0  0  0  0  0  0  0
    8.0622    0.2500    0.0000 C   0  0  0  0  0  0  0  0  0  0  0  0
    5.4641    2.7500    0.0000 C   0  0  0  0  0  0  0  0  0  0  0  0
    5.1350    0.5600    0.0000 H   0  0  0  0  0  0  0  0  0  0  0  0
    3.7320    0.3700    0.0000 H   0  0  0  0  0  0  0  0  0  0  0  0
    6.0010   -0.5600    0.0000 H   0  0  0  0  0  0  0  0  0  0  0  0
    3.7320   -1.8700    0.0000 H   0  0  0  0  0  0  0  0  0  0  0  0
    4.1996   -2.2250    0.0000 H   0  0  0  0  0  0  0  0  0  0  0  0
    4.9966   -2.2250    0.0000 H   0  0  0  0  0  0  0  0  0  0  0  0
    6.7287    0.7249    0.0000 H   0  0  0  0  0  0  0  0  0  0  0  0
    5.9316    0.7249    0.0000 H   0  0  0  0  0  0  0  0  0  0  0  0
    1.6900    0.2869    0.0000 H   0  0  0  0  0  0  0  0  0  0  0  0
    1.4631   -0.5600    0.0000 H   0  0  0  0  0  0  0  0  0  0  0  0
    2.3100   -0.7869    0.0000 H   0  0  0  0  0  0  0  0  0  0  0  0
    2.2460   -2.7500    0.0000 H   0  0  0  0  0  0  0  0  0  0  0  0
    2.8660   -3.3700    0.0000 H   0  0  0  0  0  0  0  0  0  0  0  0
    3.4860   -2.7500    0.0000 H   0  0  0  0  0  0  0  0  0  0  0  0
    8.3722   -0.2869    0.0000 H   0  0  0  0  0  0  0  0  0  0  0  0
    8.5991    0.5600    0.0000 H   0  0  0  0  0  0  0  0  0  0  0  0
    7.7522    0.7869    0.0000 H   0  0  0  0  0  0  0  0  0  0  0  0
    6.0841    2.7500    0.0000 H   0  0  0  0  0  0  0  0  0  0  0  0
    5.4641    3.3700    0.0000 H   0  0  0  0  0  0  0  0  0  0  0  0
    4.8441    2.7500    0.0000 H   0  0  0  0  0  0  0  0  0  0  0  0
  1  9  1  0  0  0  0
  1 11  1  0  0  0  0
  2  8  1  0  0  0  0
  2 13  1  0  0  0  0
  3  7  1  0  0  0  0
  3 14  1  0  0  0  0
  4 10  1  0  0  0  0
  4 15  1  0  0  0  0
  5 12  1  0  0  0  0
  5 16  1  0  0  0  0
  6 14  2  0  0  0  0
  7  8  1  0  0  0  0
  7  9  1  0  0  0  0
  7 18  1  0  0  0  0
  8 10  1  0  0  0  0
  8 19  1  0  0  0  0
  9 12  1  0  0  0  0
  9 20  1  0  0  0  0
 10 11  1  0  0  0  0
 10 21  1  0  0  0  0
 11 22  1  0  0  0  0
 11 23  1  0  0  0  0
 12 24  1  0  0  0  0
 12 25  1  0  0  0  0
 13 26  1  0  0  0  0
 13 27  1  0  0  0  0
 13 28  1  0  0  0  0
 14 17  1  0  0  0  0
 15 29  1  0  0  0  0
 15 30  1  0  0  0  0
 15 31  1  0  0  0  0
 16 32  1  0  0  0  0
 16 33  1  0  0  0  0
 16 34  1  0  0  0  0
 17 35  1  0  0  0  0
 17 36  1  0  0  0  0
 17 37  1  0  0  0  0
M  END
> <PUBCHEM_COMPOUND_CID>
526609
> <PUBCHEM_COMPOUND_CANONICALIZED>
1
> <PUBCHEM_CACTVS_COMPLEXITY>
244
> <PUBCHEM_CACTVS_HBOND_ACCEPTOR>
6
> <PUBCHEM_CACTVS_HBOND_DONOR>
0
> <PUBCHEM_CACTVS_ROTATABLE_BOND>
6
> <PUBCHEM_CACTVS_SUBSKEYS>
AAADceBwOAAAAAAAAAAAAAAAAAAAAAAAAAAkAAAAAAAAAAAAAAAAGgAAAAAACBSggAICCAAABAAIAACQCAAAAAAAAAAAAAAAAAABAAIAAAACAAAFAAACAAHAYAwAAAAAAAAAAAAAAAAAAAAAAAAAAAAAAA==
> <PUBCHEM_IUPAC_OPENEYE_NAME>
[4,5-dimethoxy-2-(methoxymethyl)tetrahydropyran-3-yl] acetate
> <PUBCHEM_IUPAC_CAS_NAME>
acetic acid [4,5-dimethoxy-2-(methoxymethyl)-3-oxanyl] ester
> <PUBCHEM_IUPAC_NAME_MARKUP>
[4,5-dimethoxy-2-(methoxymethyl)oxan-3-yl] acetate
> <PUBCHEM_IUPAC_NAME>
[4,5-dimethoxy-2-(methoxymethyl)oxan-3-yl] acetate
> <PUBCHEM_IUPAC_SYSTEMATIC_NAME>
[4,5-dimethoxy-2-(methoxymethyl)oxan-3-yl] ethanoate
> <PUBCHEM_IUPAC_TRADITIONAL_NAME>
acetic acid [4,5-dimethoxy-2-(methoxymethyl)tetrahydropyran-3-yl] ester
> <PUBCHEM_IUPAC_INCHI>
InChI=1S/C11H20O6/c1-7(12)17-11-9(5-13-2)16-6-8(14-3)10(11)15-4/h8-11H,5-6H2,1-4H3
> <PUBCHEM_IUPAC_INCHIKEY>
BPVFAUHKDUHQHN-UHFFFAOYSA-N
> <PUBCHEM_XLOGP3_AA>
-0.4
> <PUBCHEM_EXACT_MASS>
248.12598835
> <PUBCHEM_MOLECULAR_FORMULA>
C11H20O6
> <PUBCHEM_MOLECULAR_WEIGHT>
248.27
> <PUBCHEM_OPENEYE_CAN_SMILES>
CC(=O)OC1C(OCC(C1OC)OC)COC
> <PUBCHEM_OPENEYE_ISO_SMILES>
CC(=O)OC1C(OCC(C1OC)OC)COC
> <PUBCHEM_CACTVS_TPSA>
63.2
> <PUBCHEM_MONOISOTOPIC_WEIGHT>
248.12598835
> <PUBCHEM_TOTAL_CHARGE>
0
> <PUBCHEM_HEAVY_ATOM_COUNT>
17
> <PUBCHEM_ATOM_DEF_STEREO_COUNT>
0
> <PUBCHEM_ATOM_UDEF_STEREO_COUNT>
4
> <PUBCHEM_BOND_DEF_STEREO_COUNT>
0
> <PUBCHEM_BOND_UDEF_STEREO_COUNT>
0
> <PUBCHEM_ISOTOPIC_ATOM_COUNT>
0
> <PUBCHEM_COMPONENT_COUNT>
1
> <PUBCHEM_CACTVS_TAUTO_COUNT>
-1
> <PUBCHEM_COORDINATE_TYPE>
1
5
255
> <PUBCHEM_BONDANNOTATIONS>
8  2  3
7  3  3
10  4  3
9  12  3
$$$$
