526681
  -OEChem-10302200292D
 28 28  0     1  0  0  0  0  0999 V2000
    2.8660   -3.6550    0.0000 O   0  5  0  0  0  0  0  0  0  0  0  0
    2.0000   -2.1550    0.0000 O   0  0  0  0  0  0  0  0  0  0  0  0
    4.5981    3.3450    0.0000 N   0  0  0  0  0  0  0  0  0  0  0  0
    2.8660   -2.6550    0.0000 N   0  3  0  0  0  0  0  0  0  0  0  0
    3.7320    1.8450    0.0000 C   0  0  0  0  0  0  0  0  0  0  0  0
    4.5981    2.3450    0.0000 C   0  0  3  0  0  0  0  0  0  0  0  0
    3.7320    0.8450    0.0000 C   0  0  0  0  0  0  0  0  0  0  0  0
    5.4641    1.8450    0.0000 C   0  0  0  0  0  0  0  0  0  0  0  0
    2.8660    0.3450    0.0000 C   0  0  0  0  0  0  0  0  0  0  0  0
    4.5981    0.3450    0.0000 C   0  0  0  0  0  0  0  0  0  0  0  0
    3.7320   -1.1550    0.0000 C   0  0  0  0  0  0  0  0  0  0  0  0
    2.8660   -0.6550    0.0000 C   0  0  0  0  0  0  0  0  0  0  0  0
    4.5981   -0.6550    0.0000 C   0  0  0  0  0  0  0  0  0  0  0  0
    3.7320   -2.1550    0.0000 C   0  0  0  0  0  0  0  0  0  0  0  0
    3.5200    2.4276    0.0000 H   0  0  0  0  0  0  0  0  0  0  0  0
    3.1215    1.7373    0.0000 H   0  0  0  0  0  0  0  0  0  0  0  0
    5.1350    2.6550    0.0000 H   0  0  0  0  0  0  0  0  0  0  0  0
    2.3291    0.6550    0.0000 H   0  0  0  0  0  0  0  0  0  0  0  0
    5.1350    0.6550    0.0000 H   0  0  0  0  0  0  0  0  0  0  0  0
    5.1541    1.3081    0.0000 H   0  0  0  0  0  0  0  0  0  0  0  0
    6.0010    1.5350    0.0000 H   0  0  0  0  0  0  0  0  0  0  0  0
    5.7741    2.3819    0.0000 H   0  0  0  0  0  0  0  0  0  0  0  0
    2.3291   -0.9650    0.0000 H   0  0  0  0  0  0  0  0  0  0  0  0
    5.1350   -0.9650    0.0000 H   0  0  0  0  0  0  0  0  0  0  0  0
    5.1350    3.6550    0.0000 H   0  0  0  0  0  0  0  0  0  0  0  0
    4.0611    3.6550    0.0000 H   0  0  0  0  0  0  0  0  0  0  0  0
    3.9441   -2.7376    0.0000 H   0  0  0  0  0  0  0  0  0  0  0  0
    4.3426   -2.0473    0.0000 H   0  0  0  0  0  0  0  0  0  0  0  0
  1  4  1  0  0  0  0
  2  4  2  0  0  0  0
  3  6  1  0  0  0  0
  3 25  1  0  0  0  0
  3 26  1  0  0  0  0
  4 14  1  0  0  0  0
  5  6  1  0  0  0  0
  5  7  1  0  0  0  0
  5 15  1  0  0  0  0
  5 16  1  0  0  0  0
  6  8  1  0  0  0  0
  6 17  1  0  0  0  0
  7  9  2  0  0  0  0
  7 10  1  0  0  0  0
  8 20  1  0  0  0  0
  8 21  1  0  0  0  0
  8 22  1  0  0  0  0
  9 12  1  0  0  0  0
  9 18  1  0  0  0  0
 10 13  2  0  0  0  0
 10 19  1  0  0  0  0
 11 12  2  0  0  0  0
 11 13  1  0  0  0  0
 11 14  1  0  0  0  0
 12 23  1  0  0  0  0
 13 24  1  0  0  0  0
 14 27  1  0  0  0  0
 14 28  1  0  0  0  0
M  CHG  2   1  -1   4   1
M  END
> <PUBCHEM_COMPOUND_CID>
526681
> <PUBCHEM_COMPOUND_CANONICALIZED>
1
> <PUBCHEM_CACTVS_COMPLEXITY>
183
> <PUBCHEM_CACTVS_HBOND_ACCEPTOR>
3
> <PUBCHEM_CACTVS_HBOND_DONOR>
1
> <PUBCHEM_CACTVS_ROTATABLE_BOND>
3
> <PUBCHEM_CACTVS_SUBSKEYS>
AAADccBzMAAAAAAAAAAAAAAAAAAAAAAAAAAwAAAAAAAAAAABAAAAHAAUAAAADCjBGAQyAIBQQACBAiBCAwCCAAAgAAAoiIAABIgIICKAkRGAIABgkAAIiAcQgMAOQAAAAAAAAACAAAAAAAAAAAAAAAAAAA==
> <PUBCHEM_IUPAC_OPENEYE_NAME>
1-[4-(nitromethyl)phenyl]propan-2-amine
> <PUBCHEM_IUPAC_CAS_NAME>
1-[4-(nitromethyl)phenyl]-2-propanamine
> <PUBCHEM_IUPAC_NAME_MARKUP>
1-[4-(nitromethyl)phenyl]propan-2-amine
> <PUBCHEM_IUPAC_NAME>
1-[4-(nitromethyl)phenyl]propan-2-amine
> <PUBCHEM_IUPAC_SYSTEMATIC_NAME>
1-[4-(nitromethyl)phenyl]propan-2-amine
> <PUBCHEM_IUPAC_TRADITIONAL_NAME>
[1-methyl-2-[4-(nitromethyl)phenyl]ethyl]amine
> <PUBCHEM_IUPAC_INCHI>
InChI=1S/C10H14N2O2/c1-8(11)6-9-2-4-10(5-3-9)7-12(13)14/h2-5,8H,6-7,11H2,1H3
> <PUBCHEM_IUPAC_INCHIKEY>
CTSZFNGRZCXFOZ-UHFFFAOYSA-N
> <PUBCHEM_XLOGP3_AA>
1.4
> <PUBCHEM_EXACT_MASS>
194.105527694
> <PUBCHEM_MOLECULAR_FORMULA>
C10H14N2O2
> <PUBCHEM_MOLECULAR_WEIGHT>
194.23
> <PUBCHEM_OPENEYE_CAN_SMILES>
CC(CC1=CC=C(C=C1)C[N+](=O)[O-])N
> <PUBCHEM_OPENEYE_ISO_SMILES>
CC(CC1=CC=C(C=C1)C[N+](=O)[O-])N
> <PUBCHEM_CACTVS_TPSA>
71.8
> <PUBCHEM_MONOISOTOPIC_WEIGHT>
194.105527694
> <PUBCHEM_TOTAL_CHARGE>
0
> <PUBCHEM_HEAVY_ATOM_COUNT>
14
> <PUBCHEM_ATOM_DEF_STEREO_COUNT>
0
> <PUBCHEM_ATOM_UDEF_STEREO_COUNT>
1
> <PUBCHEM_BOND_DEF_STEREO_COUNT>
0
> <PUBCHEM_BOND_UDEF_STEREO_COUNT>
0
> <PUBCHEM_ISOTOPIC_ATOM_COUNT>
0
> <PUBCHEM_COMPONENT_COUNT>
1
> <PUBCHEM_CACTVS_TAUTO_COUNT>
-1
> <PUBCHEM_COORDINATE_TYPE>
1
5
255
> <PUBCHEM_BONDANNOTATIONS>
10  13  8
11  12  8
11  13  8
6  3  3
7  10  8
7  9  8
9  12  8
$$$$
