526622
  -OEChem-10302200292D
 16 16  0     1  0  0  0  0  0999 V2000
    3.7320    1.0000    0.0000 S   0  0  0  0  0  0  0  0  0  0  0  0
    4.5981   -0.5000    0.0000 S   0  0  0  0  0  0  0  0  0  0  0  0
    2.8660   -0.5000    0.0000 S   0  0  0  0  0  0  0  0  0  0  0  0
    3.7320   -1.0000    0.0000 S   0  0  0  0  0  0  0  0  0  0  0  0
    4.5981    0.5000    0.0000 C   0  0  3  0  0  0  0  0  0  0  0  0
    2.8660    0.5000    0.0000 C   0  0  3  0  0  0  0  0  0  0  0  0
    5.4641    1.0000    0.0000 C   0  0  0  0  0  0  0  0  0  0  0  0
    2.0000    1.0000    0.0000 C   0  0  0  0  0  0  0  0  0  0  0  0
    4.5981    1.1200    0.0000 H   0  0  0  0  0  0  0  0  0  0  0  0
    2.8660    1.1200    0.0000 H   0  0  0  0  0  0  0  0  0  0  0  0
    5.7741    0.4631    0.0000 H   0  0  0  0  0  0  0  0  0  0  0  0
    6.0010    1.3100    0.0000 H   0  0  0  0  0  0  0  0  0  0  0  0
    5.1541    1.5369    0.0000 H   0  0  0  0  0  0  0  0  0  0  0  0
    2.3100    1.5369    0.0000 H   0  0  0  0  0  0  0  0  0  0  0  0
    1.4631    1.3100    0.0000 H   0  0  0  0  0  0  0  0  0  0  0  0
    1.6900    0.4631    0.0000 H   0  0  0  0  0  0  0  0  0  0  0  0
  1  5  1  0  0  0  0
  1  6  1  0  0  0  0
  2  4  1  0  0  0  0
  2  5  1  0  0  0  0
  3  4  1  0  0  0  0
  3  6  1  0  0  0  0
  5  7  1  0  0  0  0
  5  9  1  0  0  0  0
  6  8  1  0  0  0  0
  6 10  1  0  0  0  0
  7 11  1  0  0  0  0
  7 12  1  0  0  0  0
  7 13  1  0  0  0  0
  8 14  1  0  0  0  0
  8 15  1  0  0  0  0
  8 16  1  0  0  0  0
M  END
> <PUBCHEM_COMPOUND_CID>
526622
> <PUBCHEM_COMPOUND_CANONICALIZED>
1
> <PUBCHEM_CACTVS_COMPLEXITY>
66.4
> <PUBCHEM_CACTVS_HBOND_ACCEPTOR>
4
> <PUBCHEM_CACTVS_HBOND_DONOR>
0
> <PUBCHEM_CACTVS_ROTATABLE_BOND>
0
> <PUBCHEM_CACTVS_SUBSKEYS>
AAADccBgAABwAAAAAAAAAAAAAAAAAAAAAAAkAAAAAAAAAAAAAAAAGAQAAAAAAACEQACCAAAAAAgAAAAAAAAAAQAAABAAAAAAAAAAAAAAAAAAAAAAAAAgAAAAAAAAAAAAAAAAAAAAAAAAAAAAAAAAAAAAAA==
> <PUBCHEM_IUPAC_OPENEYE_NAME>
4,6-dimethyl-1,2,3,5-tetrathiane
> <PUBCHEM_IUPAC_CAS_NAME>
4,6-dimethyl-1,2,3,5-tetrathiane
> <PUBCHEM_IUPAC_NAME_MARKUP>
4,6-dimethyl-1,2,3,5-tetrathiane
> <PUBCHEM_IUPAC_NAME>
4,6-dimethyl-1,2,3,5-tetrathiane
> <PUBCHEM_IUPAC_SYSTEMATIC_NAME>
4,6-dimethyl-1,2,3,5-tetrathiane
> <PUBCHEM_IUPAC_TRADITIONAL_NAME>
4,6-dimethyl-1,2,3,5-tetrathiane
> <PUBCHEM_IUPAC_INCHI>
InChI=1S/C4H8S4/c1-3-5-4(2)7-8-6-3/h3-4H,1-2H3
> <PUBCHEM_IUPAC_INCHIKEY>
LIAYFMNHMJEGEI-UHFFFAOYSA-N
> <PUBCHEM_XLOGP3_AA>
2.8
> <PUBCHEM_EXACT_MASS>
183.95088495
> <PUBCHEM_MOLECULAR_FORMULA>
C4H8S4
> <PUBCHEM_MOLECULAR_WEIGHT>
184.4
> <PUBCHEM_OPENEYE_CAN_SMILES>
CC1SC(SSS1)C
> <PUBCHEM_OPENEYE_ISO_SMILES>
CC1SC(SSS1)C
> <PUBCHEM_CACTVS_TPSA>
101
> <PUBCHEM_MONOISOTOPIC_WEIGHT>
183.95088495
> <PUBCHEM_TOTAL_CHARGE>
0
> <PUBCHEM_HEAVY_ATOM_COUNT>
8
> <PUBCHEM_ATOM_DEF_STEREO_COUNT>
0
> <PUBCHEM_ATOM_UDEF_STEREO_COUNT>
2
> <PUBCHEM_BOND_DEF_STEREO_COUNT>
0
> <PUBCHEM_BOND_UDEF_STEREO_COUNT>
0
> <PUBCHEM_ISOTOPIC_ATOM_COUNT>
0
> <PUBCHEM_COMPONENT_COUNT>
1
> <PUBCHEM_CACTVS_TAUTO_COUNT>
-1
> <PUBCHEM_COORDINATE_TYPE>
1
5
255
> <PUBCHEM_BONDANNOTATIONS>
5  7  3
6  8  3
$$$$
