526626
  -OEChem-10302200292D
 34 35  0     1  0  0  0  0  0999 V2000
    2.8602   -0.8724    0.0000 O   0  0  0  0  0  0  0  0  0  0  0  0
    6.3405    0.1822    0.0000 O   0  0  0  0  0  0  0  0  0  0  0  0
    2.8833   -2.8723    0.0000 O   0  0  0  0  0  0  0  0  0  0  0  0
    8.0726    0.1822    0.0000 O   0  0  0  0  0  0  0  0  0  0  0  0
    8.0726    3.1822    0.0000 O   0  0  0  0  0  0  0  0  0  0  0  0
    8.9386    1.6822    0.0000 O   0  0  0  0  0  0  0  0  0  0  0  0
    4.5921   -0.8524    0.0000 C   0  0  0  0  0  0  0  0  0  0  0  0
    3.7319   -1.3624    0.0000 C   0  0  3  0  0  0  0  0  0  0  0  0
    4.5806    0.1476    0.0000 C   0  0  0  0  0  0  0  0  0  0  0  0
    5.4745    0.6822    0.0000 C   0  0  0  0  0  0  0  0  0  0  0  0
    5.4745    1.6822    0.0000 C   0  0  0  0  0  0  0  0  0  0  0  0
    3.7435   -2.3623    0.0000 C   0  0  0  0  0  0  0  0  0  0  0  0
    3.6745    0.6614    0.0000 C   0  0  0  0  0  0  0  0  0  0  0  0
    4.5806    2.2169    0.0000 C   0  0  0  0  0  0  0  0  0  0  0  0
    3.6745    1.7030    0.0000 C   0  0  0  0  0  0  0  0  0  0  0  0
    6.3405    2.1822    0.0000 C   0  0  0  0  0  0  0  0  0  0  0  0
    7.2066    1.6822    0.0000 C   0  0  0  0  0  0  0  0  0  0  0  0
    7.2066    0.6822    0.0000 C   0  0  0  0  0  0  0  0  0  0  0  0
    2.0000   -1.3824    0.0000 C   0  0  0  0  0  0  0  0  0  0  0  0
    8.0726    2.1822    0.0000 C   0  0  0  0  0  0  0  0  0  0  0  0
    4.8109   -1.4325    0.0000 H   0  0  0  0  0  0  0  0  0  0  0  0
    5.2014   -0.7377    0.0000 H   0  0  0  0  0  0  0  0  0  0  0  0
    3.1986   -1.6785    0.0000 H   0  0  0  0  0  0  0  0  0  0  0  0
    3.9623   -2.9424    0.0000 H   0  0  0  0  0  0  0  0  0  0  0  0
    4.3528   -2.2476    0.0000 H   0  0  0  0  0  0  0  0  0  0  0  0
    3.1388    0.3493    0.0000 H   0  0  0  0  0  0  0  0  0  0  0  0
    4.5877    2.8368    0.0000 H   0  0  0  0  0  0  0  0  0  0  0  0
    3.1388    2.0151    0.0000 H   0  0  0  0  0  0  0  0  0  0  0  0
    6.3405    2.8022    0.0000 H   0  0  0  0  0  0  0  0  0  0  0  0
    1.6838   -0.8491    0.0000 H   0  0  0  0  0  0  0  0  0  0  0  0
    1.4667   -1.6986    0.0000 H   0  0  0  0  0  0  0  0  0  0  0  0
    2.3162   -1.9157    0.0000 H   0  0  0  0  0  0  0  0  0  0  0  0
    2.8905   -3.4922    0.0000 H   0  0  0  0  0  0  0  0  0  0  0  0
    8.6095    3.4922    0.0000 H   0  0  0  0  0  0  0  0  0  0  0  0
  1  8  1  0  0  0  0
  1 19  1  0  0  0  0
  2 10  1  0  0  0  0
  2 18  1  0  0  0  0
  3 12  1  0  0  0  0
  3 33  1  0  0  0  0
  4 18  2  0  0  0  0
  5 20  1  0  0  0  0
  5 34  1  0  0  0  0
  6 20  2  0  0  0  0
  7  8  1  0  0  0  0
  7  9  1  0  0  0  0
  7 21  1  0  0  0  0
  7 22  1  0  0  0  0
  8 12  1  0  0  0  0
  8 23  1  0  0  0  0
  9 10  1  0  0  0  0
  9 13  2  0  0  0  0
 10 11  2  0  0  0  0
 11 14  1  0  0  0  0
 11 16  1  0  0  0  0
 12 24  1  0  0  0  0
 12 25  1  0  0  0  0
 13 15  1  0  0  0  0
 13 26  1  0  0  0  0
 14 15  2  0  0  0  0
 14 27  1  0  0  0  0
 15 28  1  0  0  0  0
 16 17  2  0  0  0  0
 16 29  1  0  0  0  0
 17 18  1  0  0  0  0
 17 20  1  0  0  0  0
 19 30  1  0  0  0  0
 19 31  1  0  0  0  0
 19 32  1  0  0  0  0
M  END
> <PUBCHEM_COMPOUND_CID>
526626
> <PUBCHEM_COMPOUND_CANONICALIZED>
1
> <PUBCHEM_CACTVS_COMPLEXITY>
416
> <PUBCHEM_CACTVS_HBOND_ACCEPTOR>
6
> <PUBCHEM_CACTVS_HBOND_DONOR>
2
> <PUBCHEM_CACTVS_ROTATABLE_BOND>
5
> <PUBCHEM_CACTVS_SUBSKEYS>
AAADccBwOAAAAAAAAAAAAAAAAAAAAAAAAAAwQAAAAAAAAACBAAAAGgAACAAADBSgmAIyDoAABgCIAiDSCAACCAAgIAAIiAEECMgNNiaMMRqCeiCl4BELuYfA4PwOAAACAAAIAAAAAAQAABAAAAAAAAAAAA==
> <PUBCHEM_IUPAC_OPENEYE_NAME>
8-(3-hydroxy-2-methoxy-propyl)-2-oxo-chromene-3-carboxylic acid
> <PUBCHEM_IUPAC_CAS_NAME>
8-(3-hydroxy-2-methoxypropyl)-2-oxo-1-benzopyran-3-carboxylic acid
> <PUBCHEM_IUPAC_NAME_MARKUP>
8-(3-hydroxy-2-methoxypropyl)-2-oxochromene-3-carboxylic acid
> <PUBCHEM_IUPAC_NAME>
8-(3-hydroxy-2-methoxypropyl)-2-oxochromene-3-carboxylic acid
> <PUBCHEM_IUPAC_SYSTEMATIC_NAME>
8-(2-methoxy-3-oxidanyl-propyl)-2-oxidanylidene-chromene-3-carboxylic acid
> <PUBCHEM_IUPAC_TRADITIONAL_NAME>
8-(3-hydroxy-2-methoxy-propyl)-2-keto-chromene-3-carboxylic acid
> <PUBCHEM_IUPAC_INCHI>
InChI=1S/C14H14O6/c1-19-10(7-15)5-8-3-2-4-9-6-11(13(16)17)14(18)20-12(8)9/h2-4,6,10,15H,5,7H2,1H3,(H,16,17)
> <PUBCHEM_IUPAC_INCHIKEY>
LNSCQJMHUICSSU-UHFFFAOYSA-N
> <PUBCHEM_XLOGP3_AA>
1.7
> <PUBCHEM_EXACT_MASS>
278.07903816
> <PUBCHEM_MOLECULAR_FORMULA>
C14H14O6
> <PUBCHEM_MOLECULAR_WEIGHT>
278.26
> <PUBCHEM_OPENEYE_CAN_SMILES>
COC(CC1=CC=CC2=C1OC(=O)C(=C2)C(=O)O)CO
> <PUBCHEM_OPENEYE_ISO_SMILES>
COC(CC1=CC=CC2=C1OC(=O)C(=C2)C(=O)O)CO
> <PUBCHEM_CACTVS_TPSA>
93.1
> <PUBCHEM_MONOISOTOPIC_WEIGHT>
278.07903816
> <PUBCHEM_TOTAL_CHARGE>
0
> <PUBCHEM_HEAVY_ATOM_COUNT>
20
> <PUBCHEM_ATOM_DEF_STEREO_COUNT>
0
> <PUBCHEM_ATOM_UDEF_STEREO_COUNT>
1
> <PUBCHEM_BOND_DEF_STEREO_COUNT>
0
> <PUBCHEM_BOND_UDEF_STEREO_COUNT>
0
> <PUBCHEM_ISOTOPIC_ATOM_COUNT>
0
> <PUBCHEM_COMPONENT_COUNT>
1
> <PUBCHEM_CACTVS_TAUTO_COUNT>
-1
> <PUBCHEM_COORDINATE_TYPE>
1
5
255
> <PUBCHEM_BONDANNOTATIONS>
10  11  8
11  14  8
11  16  8
13  15  8
14  15  8
16  17  8
17  18  8
2  10  8
2  18  8
8  7  3
9  10  8
9  13  8
$$$$
