526672
  -OEChem-10302200292D
 95 98  0     1  0  0  0  0  0999 V2000
    7.3892    1.8191    0.0000 Si  0  0  0  0  0  0  0  0  0  0  0  0
    2.8641   -2.7299    0.0000 Si  0  0  0  0  0  0  0  0  0  0  0  0
    8.2552    1.3191    0.0000 O   0  0  0  0  0  0  0  0  0  0  0  0
    3.7282   -3.2333    0.0000 O   0  0  0  0  0  0  0  0  0  0  0  0
   12.9565    3.3878    0.0000 O   0  0  0  0  0  0  0  0  0  0  0  0
   13.3137    1.6930    0.0000 O   0  0  0  0  0  0  0  0  0  0  0  0
    9.1213   -0.1809    0.0000 C   0  0  3  0  0  0  0  0  0  0  0  0
    9.1213   -1.1809    0.0000 C   0  0  3  0  0  0  0  0  0  0  0  0
    8.2552   -1.6809    0.0000 C   0  0  3  0  0  0  0  0  0  0  0  0
    7.3892   -1.1809    0.0000 C   0  0  3  0  0  0  0  0  0  0  0  0
    6.4792   -1.6878    0.0000 C   0  0  3  0  0  0  0  0  0  0  0  0
   10.0675    0.1238    0.0000 C   0  0  3  0  0  0  0  0  0  0  0  0
    8.2552    0.3191    0.0000 C   0  0  3  0  0  0  0  0  0  0  0  0
    7.3892   -0.1809    0.0000 C   0  0  0  0  0  0  0  0  0  0  0  0
    6.4712   -2.7294    0.0000 C   0  0  3  0  0  0  0  0  0  0  0  0
   10.0675   -1.4857    0.0000 C   0  0  0  0  0  0  0  0  0  0  0  0
    8.2713   -2.7224    0.0000 C   0  0  0  0  0  0  0  0  0  0  0  0
   10.6511   -0.6809    0.0000 C   0  0  0  0  0  0  0  0  0  0  0  0
    7.3733   -3.2502    0.0000 C   0  0  0  0  0  0  0  0  0  0  0  0
    5.5524   -1.1237    0.0000 C   0  0  0  0  0  0  0  0  0  0  0  0
    9.1213    0.8191    0.0000 C   0  0  0  0  0  0  0  0  0  0  0  0
   10.3781    1.0743    0.0000 C   0  0  3  0  0  0  0  0  0  0  0  0
    5.5358   -3.2791    0.0000 C   0  0  0  0  0  0  0  0  0  0  0  0
    6.4869   -0.6878    0.0000 C   0  0  0  0  0  0  0  0  0  0  0  0
    4.6045   -1.6516    0.0000 C   0  0  0  0  0  0  0  0  0  0  0  0
    4.5961   -2.7366    0.0000 C   0  0  3  0  0  0  0  0  0  0  0  0
   11.3567    1.2805    0.0000 C   0  0  0  0  0  0  0  0  0  0  0  0
    9.7103    1.8186    0.0000 C   0  0  0  0  0  0  0  0  0  0  0  0
   11.6673    2.2311    0.0000 C   0  0  0  0  0  0  0  0  0  0  0  0
    6.5232    2.3191    0.0000 C   0  0  0  0  0  0  0  0  0  0  0  0
    7.8892    2.6851    0.0000 C   0  0  0  0  0  0  0  0  0  0  0  0
    6.8892    0.9530    0.0000 C   0  0  0  0  0  0  0  0  0  0  0  0
   12.6458    2.4373    0.0000 C   0  0  0  0  0  0  0  0  0  0  0  0
    2.0000   -2.2266    0.0000 C   0  0  0  0  0  0  0  0  0  0  0  0
    2.3608   -3.5940    0.0000 C   0  0  0  0  0  0  0  0  0  0  0  0
    3.3674   -1.8658    0.0000 C   0  0  0  0  0  0  0  0  0  0  0  0
   13.9350    3.5940    0.0000 C   0  0  0  0  0  0  0  0  0  0  0  0
    9.1869   -1.7974    0.0000 H   0  0  0  0  0  0  0  0  0  0  0  0
    8.7945   -1.9868    0.0000 H   0  0  0  0  0  0  0  0  0  0  0  0
    7.9262   -0.8709    0.0000 H   0  0  0  0  0  0  0  0  0  0  0  0
   10.6800    0.2200    0.0000 H   0  0  0  0  0  0  0  0  0  0  0  0
    7.7183    0.6291    0.0000 H   0  0  0  0  0  0  0  0  0  0  0  0
    7.1772    0.4017    0.0000 H   0  0  0  0  0  0  0  0  0  0  0  0
    6.7786   -0.2886    0.0000 H   0  0  0  0  0  0  0  0  0  0  0  0
    6.4736   -3.3494    0.0000 H   0  0  0  0  0  0  0  0  0  0  0  0
    9.8164   -2.0526    0.0000 H   0  0  0  0  0  0  0  0  0  0  0  0
   10.6049   -1.7949    0.0000 H   0  0  0  0  0  0  0  0  0  0  0  0
    8.4893   -3.3028    0.0000 H   0  0  0  0  0  0  0  0  0  0  0  0
    8.8804   -2.6069    0.0000 H   0  0  0  0  0  0  0  0  0  0  0  0
   11.1120   -1.0957    0.0000 H   0  0  0  0  0  0  0  0  0  0  0  0
   11.1120   -0.2662    0.0000 H   0  0  0  0  0  0  0  0  0  0  0  0
    6.9760   -3.7262    0.0000 H   0  0  0  0  0  0  0  0  0  0  0  0
    7.7742   -3.7231    0.0000 H   0  0  0  0  0  0  0  0  0  0  0  0
    5.9606   -0.6570    0.0000 H   0  0  0  0  0  0  0  0  0  0  0  0
    5.1625   -0.6417    0.0000 H   0  0  0  0  0  0  0  0  0  0  0  0
    9.7413    0.8191    0.0000 H   0  0  0  0  0  0  0  0  0  0  0  0
    9.1213    1.4391    0.0000 H   0  0  0  0  0  0  0  0  0  0  0  0
    8.5013    0.8191    0.0000 H   0  0  0  0  0  0  0  0  0  0  0  0
   10.5708    1.6636    0.0000 H   0  0  0  0  0  0  0  0  0  0  0  0
    5.1385   -3.7551    0.0000 H   0  0  0  0  0  0  0  0  0  0  0  0
    5.9367   -3.7520    0.0000 H   0  0  0  0  0  0  0  0  0  0  0  0
    7.1069   -0.6926    0.0000 H   0  0  0  0  0  0  0  0  0  0  0  0
    6.4917   -0.0678    0.0000 H   0  0  0  0  0  0  0  0  0  0  0  0
    5.8669   -0.6830    0.0000 H   0  0  0  0  0  0  0  0  0  0  0  0
    4.3999   -1.0664    0.0000 H   0  0  0  0  0  0  0  0  0  0  0  0
    3.9928   -1.7530    0.0000 H   0  0  0  0  0  0  0  0  0  0  0  0
    4.5949   -3.3566    0.0000 H   0  0  0  0  0  0  0  0  0  0  0  0
   11.3772    0.6609    0.0000 H   0  0  0  0  0  0  0  0  0  0  0  0
   11.9705    1.1932    0.0000 H   0  0  0  0  0  0  0  0  0  0  0  0
   10.1718    2.2327    0.0000 H   0  0  0  0  0  0  0  0  0  0  0  0
    9.2962    2.2801    0.0000 H   0  0  0  0  0  0  0  0  0  0  0  0
    9.2488    1.4046    0.0000 H   0  0  0  0  0  0  0  0  0  0  0  0
   11.6468    2.8507    0.0000 H   0  0  0  0  0  0  0  0  0  0  0  0
   11.0535    2.3184    0.0000 H   0  0  0  0  0  0  0  0  0  0  0  0
    6.8332    2.8560    0.0000 H   0  0  0  0  0  0  0  0  0  0  0  0
    5.9863    2.6291    0.0000 H   0  0  0  0  0  0  0  0  0  0  0  0
    6.2132    1.7821    0.0000 H   0  0  0  0  0  0  0  0  0  0  0  0
    8.4262    2.3751    0.0000 H   0  0  0  0  0  0  0  0  0  0  0  0
    8.1992    3.2220    0.0000 H   0  0  0  0  0  0  0  0  0  0  0  0
    7.3523    2.9951    0.0000 H   0  0  0  0  0  0  0  0  0  0  0  0
    6.3523    1.2630    0.0000 H   0  0  0  0  0  0  0  0  0  0  0  0
    6.5792    0.4161    0.0000 H   0  0  0  0  0  0  0  0  0  0  0  0
    7.4262    0.6430    0.0000 H   0  0  0  0  0  0  0  0  0  0  0  0
    2.3121   -1.6909    0.0000 H   0  0  0  0  0  0  0  0  0  0  0  0
    1.4643   -1.9145    0.0000 H   0  0  0  0  0  0  0  0  0  0  0  0
    1.6879   -2.7623    0.0000 H   0  0  0  0  0  0  0  0  0  0  0  0
    1.8250   -3.2820    0.0000 H   0  0  0  0  0  0  0  0  0  0  0  0
    2.0487   -4.1298    0.0000 H   0  0  0  0  0  0  0  0  0  0  0  0
    2.8965   -3.9061    0.0000 H   0  0  0  0  0  0  0  0  0  0  0  0
    3.9032   -2.1779    0.0000 H   0  0  0  0  0  0  0  0  0  0  0  0
    3.6795   -1.3301    0.0000 H   0  0  0  0  0  0  0  0  0  0  0  0
    2.8317   -1.5538    0.0000 H   0  0  0  0  0  0  0  0  0  0  0  0
   14.0628    2.9874    0.0000 H   0  0  0  0  0  0  0  0  0  0  0  0
   14.5417    3.7219    0.0000 H   0  0  0  0  0  0  0  0  0  0  0  0
   13.8071    4.2007    0.0000 H   0  0  0  0  0  0  0  0  0  0  0  0
  1  3  1  0  0  0  0
  1 30  1  0  0  0  0
  1 31  1  0  0  0  0
  1 32  1  0  0  0  0
  2  4  1  0  0  0  0
  2 34  1  0  0  0  0
  2 35  1  0  0  0  0
  2 36  1  0  0  0  0
  3 13  1  0  0  0  0
  4 26  1  0  0  0  0
  5 33  1  0  0  0  0
  5 37  1  0  0  0  0
  6 33  2  0  0  0  0
  7  8  1  0  0  0  0
  7 12  1  0  0  0  0
  7 13  1  0  0  0  0
  7 21  1  0  0  0  0
  8  9  1  0  0  0  0
  8 16  1  0  0  0  0
  8 38  1  0  0  0  0
  9 10  1  0  0  0  0
  9 17  1  0  0  0  0
  9 39  1  0  0  0  0
 10 11  1  0  0  0  0
 10 14  1  0  0  0  0
 10 40  1  0  0  0  0
 11 15  1  0  0  0  0
 11 20  1  0  0  0  0
 11 24  1  0  0  0  0
 12 18  1  0  0  0  0
 12 22  1  0  0  0  0
 12 41  1  0  0  0  0
 13 14  1  0  0  0  0
 13 42  1  0  0  0  0
 14 43  1  0  0  0  0
 14 44  1  0  0  0  0
 15 19  1  0  0  0  0
 15 23  1  0  0  0  0
 15 45  1  0  0  0  0
 16 18  1  0  0  0  0
 16 46  1  0  0  0  0
 16 47  1  0  0  0  0
 17 19  1  0  0  0  0
 17 48  1  0  0  0  0
 17 49  1  0  0  0  0
 18 50  1  0  0  0  0
 18 51  1  0  0  0  0
 19 52  1  0  0  0  0
 19 53  1  0  0  0  0
 20 25  1  0  0  0  0
 20 54  1  0  0  0  0
 20 55  1  0  0  0  0
 21 56  1  0  0  0  0
 21 57  1  0  0  0  0
 21 58  1  0  0  0  0
 22 27  1  0  0  0  0
 22 28  1  0  0  0  0
 22 59  1  0  0  0  0
 23 26  1  0  0  0  0
 23 60  1  0  0  0  0
 23 61  1  0  0  0  0
 24 62  1  0  0  0  0
 24 63  1  0  0  0  0
 24 64  1  0  0  0  0
 25 26  1  0  0  0  0
 25 65  1  0  0  0  0
 25 66  1  0  0  0  0
 26 67  1  0  0  0  0
 27 29  1  0  0  0  0
 27 68  1  0  0  0  0
 27 69  1  0  0  0  0
 28 70  1  0  0  0  0
 28 71  1  0  0  0  0
 28 72  1  0  0  0  0
 29 33  1  0  0  0  0
 29 73  1  0  0  0  0
 29 74  1  0  0  0  0
 30 75  1  0  0  0  0
 30 76  1  0  0  0  0
 30 77  1  0  0  0  0
 31 78  1  0  0  0  0
 31 79  1  0  0  0  0
 31 80  1  0  0  0  0
 32 81  1  0  0  0  0
 32 82  1  0  0  0  0
 32 83  1  0  0  0  0
 34 84  1  0  0  0  0
 34 85  1  0  0  0  0
 34 86  1  0  0  0  0
 35 87  1  0  0  0  0
 35 88  1  0  0  0  0
 35 89  1  0  0  0  0
 36 90  1  0  0  0  0
 36 91  1  0  0  0  0
 36 92  1  0  0  0  0
 37 93  1  0  0  0  0
 37 94  1  0  0  0  0
 37 95  1  0  0  0  0
M  END
> <PUBCHEM_COMPOUND_CID>
526672
> <PUBCHEM_COMPOUND_CANONICALIZED>
1
> <PUBCHEM_CACTVS_COMPLEXITY>
819
> <PUBCHEM_CACTVS_HBOND_ACCEPTOR>
4
> <PUBCHEM_CACTVS_HBOND_DONOR>
0
> <PUBCHEM_CACTVS_ROTATABLE_BOND>
9
> <PUBCHEM_CACTVS_SUBSKEYS>
AAADcfB4OAwAAAAAAAAAAAAAAAAAAYAAAAAwYMAAAAAAAGDAAAAAGhAAAEAADxSggAJCCAAABAEIAACQCAAAAAAAAAAAAAEAAAAAABIAAAAAAAAEAAAAAAGIyPCPgAAAAAAAAADAAAYAADAAAQAACAAAAA==
> <PUBCHEM_IUPAC_OPENEYE_NAME>
methyl 4-[10,13-dimethyl-3,12-bis(trimethylsilyloxy)-2,3,4,5,6,7,8,9,11,12,14,15,16,17-tetradecahydro-1H-cyclopenta[a]phenanthren-17-yl]pentanoate
> <PUBCHEM_IUPAC_CAS_NAME>
4-[10,13-dimethyl-3,12-bis(trimethylsilyloxy)-2,3,4,5,6,7,8,9,11,12,14,15,16,17-tetradecahydro-1H-cyclopenta[a]phenanthren-17-yl]pentanoic acid methyl ester
> <PUBCHEM_IUPAC_NAME_MARKUP>
methyl 4-[10,13-dimethyl-3,12-bis(trimethylsilyloxy)-2,3,4,5,6,7,8,9,11,12,14,15,16,17-tetradecahydro-1<I>H</I>-cyclopenta[a]phenanthren-17-yl]pentanoate
> <PUBCHEM_IUPAC_NAME>
methyl 4-[10,13-dimethyl-3,12-bis(trimethylsilyloxy)-2,3,4,5,6,7,8,9,11,12,14,15,16,17-tetradecahydro-1H-cyclopenta[a]phenanthren-17-yl]pentanoate
> <PUBCHEM_IUPAC_SYSTEMATIC_NAME>
methyl 4-[10,13-dimethyl-3,12-bis(trimethylsilyloxy)-2,3,4,5,6,7,8,9,11,12,14,15,16,17-tetradecahydro-1H-cyclopenta[a]phenanthren-17-yl]pentanoate
> <PUBCHEM_IUPAC_TRADITIONAL_NAME>
4-[10,13-dimethyl-3,12-bis(trimethylsilyloxy)-2,3,4,5,6,7,8,9,11,12,14,15,16,17-tetradecahydro-1H-cyclopenta[a]phenanthren-17-yl]valeric acid methyl ester
> <PUBCHEM_IUPAC_INCHI>
InChI=1S/C31H58O4Si2/c1-21(11-16-29(32)33-4)25-14-15-26-24-13-12-22-19-23(34-36(5,6)7)17-18-30(22,2)27(24)20-28(31(25,26)3)35-37(8,9)10/h21-28H,11-20H2,1-10H3
> <PUBCHEM_IUPAC_INCHIKEY>
RDYDEBUPRPMEHW-UHFFFAOYSA-N
> <PUBCHEM_EXACT_MASS>
550.38736340
> <PUBCHEM_MOLECULAR_FORMULA>
C31H58O4Si2
> <PUBCHEM_MOLECULAR_WEIGHT>
551.0
> <PUBCHEM_OPENEYE_CAN_SMILES>
CC(CCC(=O)OC)C1CCC2C1(C(CC3C2CCC4C3(CCC(C4)O[Si](C)(C)C)C)O[Si](C)(C)C)C
> <PUBCHEM_OPENEYE_ISO_SMILES>
CC(CCC(=O)OC)C1CCC2C1(C(CC3C2CCC4C3(CCC(C4)O[Si](C)(C)C)C)O[Si](C)(C)C)C
> <PUBCHEM_CACTVS_TPSA>
44.8
> <PUBCHEM_MONOISOTOPIC_WEIGHT>
550.38736340
> <PUBCHEM_TOTAL_CHARGE>
0
> <PUBCHEM_HEAVY_ATOM_COUNT>
37
> <PUBCHEM_ATOM_DEF_STEREO_COUNT>
0
> <PUBCHEM_ATOM_UDEF_STEREO_COUNT>
10
> <PUBCHEM_BOND_DEF_STEREO_COUNT>
0
> <PUBCHEM_BOND_UDEF_STEREO_COUNT>
0
> <PUBCHEM_ISOTOPIC_ATOM_COUNT>
0
> <PUBCHEM_COMPONENT_COUNT>
1
> <PUBCHEM_CACTVS_TAUTO_COUNT>
-1
> <PUBCHEM_COORDINATE_TYPE>
1
5
255
> <PUBCHEM_BONDANNOTATIONS>
10  14  3
11  24  3
12  18  3
15  19  3
22  28  3
13  3  3
26  4  3
7  21  3
8  16  3
9  17  3
$$$$
