526696
  -OEChem-10302200292D
 35 35  0     1  0  0  0  0  0999 V2000
    5.4641   -2.2500    0.0000 O   0  0  0  0  0  0  0  0  0  0  0  0
    5.4641    0.7500    0.0000 O   0  0  0  0  0  0  0  0  0  0  0  0
    3.7320   -0.2500    0.0000 O   0  0  0  0  0  0  0  0  0  0  0  0
    7.1962   -0.2500    0.0000 O   0  0  0  0  0  0  0  0  0  0  0  0
    7.1962    0.7500    0.0000 O   0  0  0  0  0  0  0  0  0  0  0  0
    2.8660   -1.7500    0.0000 O   0  0  0  0  0  0  0  0  0  0  0  0
    5.4641   -0.2500    0.0000 C   0  0  3  0  0  0  0  0  0  0  0  0
    4.5981   -0.7500    0.0000 C   0  0  3  0  0  0  0  0  0  0  0  0
    6.3301   -0.7500    0.0000 C   0  0  3  0  0  0  0  0  0  0  0  0
    4.5981   -1.7500    0.0000 C   0  0  3  0  0  0  0  0  0  0  0  0
    6.3301   -1.7500    0.0000 C   0  0  0  0  0  0  0  0  0  0  0  0
    3.7320   -2.2500    0.0000 C   0  0  0  0  0  0  0  0  0  0  0  0
    8.0622   -0.7500    0.0000 C   0  0  0  0  0  0  0  0  0  0  0  0
    6.3301    1.2500    0.0000 C   0  0  0  0  0  0  0  0  0  0  0  0
    2.8660   -0.7500    0.0000 C   0  0  0  0  0  0  0  0  0  0  0  0
    6.3301    2.2500    0.0000 C   0  0  0  0  0  0  0  0  0  0  0  0
    2.0000   -0.2500    0.0000 C   0  0  0  0  0  0  0  0  0  0  0  0
    6.0010    0.0600    0.0000 H   0  0  0  0  0  0  0  0  0  0  0  0
    4.5981   -0.1300    0.0000 H   0  0  0  0  0  0  0  0  0  0  0  0
    6.8671   -1.0600    0.0000 H   0  0  0  0  0  0  0  0  0  0  0  0
    4.5981   -2.3700    0.0000 H   0  0  0  0  0  0  0  0  0  0  0  0
    6.5422   -2.3326    0.0000 H   0  0  0  0  0  0  0  0  0  0  0  0
    6.9407   -1.6423    0.0000 H   0  0  0  0  0  0  0  0  0  0  0  0
    3.4220   -1.7131    0.0000 H   0  0  0  0  0  0  0  0  0  0  0  0
    3.1951   -2.5600    0.0000 H   0  0  0  0  0  0  0  0  0  0  0  0
    4.0420   -2.7869    0.0000 H   0  0  0  0  0  0  0  0  0  0  0  0
    7.7522   -1.2869    0.0000 H   0  0  0  0  0  0  0  0  0  0  0  0
    8.5991   -1.0600    0.0000 H   0  0  0  0  0  0  0  0  0  0  0  0
    8.3722   -0.2131    0.0000 H   0  0  0  0  0  0  0  0  0  0  0  0
    6.9501    2.2500    0.0000 H   0  0  0  0  0  0  0  0  0  0  0  0
    6.3301    2.8700    0.0000 H   0  0  0  0  0  0  0  0  0  0  0  0
    5.7101    2.2500    0.0000 H   0  0  0  0  0  0  0  0  0  0  0  0
    2.3100    0.2869    0.0000 H   0  0  0  0  0  0  0  0  0  0  0  0
    1.4631    0.0600    0.0000 H   0  0  0  0  0  0  0  0  0  0  0  0
    1.6900   -0.7869    0.0000 H   0  0  0  0  0  0  0  0  0  0  0  0
  1 10  1  0  0  0  0
  1 11  1  0  0  0  0
  2  7  1  0  0  0  0
  2 14  1  0  0  0  0
  3  8  1  0  0  0  0
  3 15  1  0  0  0  0
  4  9  1  0  0  0  0
  4 13  1  0  0  0  0
  5 14  2  0  0  0  0
  6 15  2  0  0  0  0
  7  8  1  0  0  0  0
  7  9  1  0  0  0  0
  7 18  1  0  0  0  0
  8 10  1  0  0  0  0
  8 19  1  0  0  0  0
  9 11  1  0  0  0  0
  9 20  1  0  0  0  0
 10 12  1  0  0  0  0
 10 21  1  0  0  0  0
 11 22  1  0  0  0  0
 11 23  1  0  0  0  0
 12 24  1  0  0  0  0
 12 25  1  0  0  0  0
 12 26  1  0  0  0  0
 13 27  1  0  0  0  0
 13 28  1  0  0  0  0
 13 29  1  0  0  0  0
 14 16  1  0  0  0  0
 15 17  1  0  0  0  0
 16 30  1  0  0  0  0
 16 31  1  0  0  0  0
 16 32  1  0  0  0  0
 17 33  1  0  0  0  0
 17 34  1  0  0  0  0
 17 35  1  0  0  0  0
M  END
> <PUBCHEM_COMPOUND_CID>
526696
> <PUBCHEM_COMPOUND_CANONICALIZED>
1
> <PUBCHEM_CACTVS_COMPLEXITY>
290
> <PUBCHEM_CACTVS_HBOND_ACCEPTOR>
6
> <PUBCHEM_CACTVS_HBOND_DONOR>
0
> <PUBCHEM_CACTVS_ROTATABLE_BOND>
5
> <PUBCHEM_CACTVS_SUBSKEYS>
AAADceBwOAAAAAAAAAAAAAAAAAAAAAAAAAAkAAAAAAAAAAAAAAAAGgAAAAAACBSggAICCAAABAAIAACQCAAAAAAAAAAAAAAAAAABAAIAAAACAAAFAAACAAHAQAAAAAAAAAAAAAAAAAAAAAAAAAAAAAAAAA==
> <PUBCHEM_IUPAC_OPENEYE_NAME>
(4-acetoxy-5-methoxy-2-methyl-tetrahydropyran-3-yl) acetate
> <PUBCHEM_IUPAC_CAS_NAME>
acetic acid (4-acetyloxy-5-methoxy-2-methyl-3-oxanyl) ester
> <PUBCHEM_IUPAC_NAME_MARKUP>
(4-acetyloxy-5-methoxy-2-methyloxan-3-yl) acetate
> <PUBCHEM_IUPAC_NAME>
(4-acetyloxy-5-methoxy-2-methyloxan-3-yl) acetate
> <PUBCHEM_IUPAC_SYSTEMATIC_NAME>
(4-acetyloxy-5-methoxy-2-methyl-oxan-3-yl) ethanoate
> <PUBCHEM_IUPAC_TRADITIONAL_NAME>
acetic acid (4-acetoxy-5-methoxy-2-methyl-tetrahydropyran-3-yl) ester
> <PUBCHEM_IUPAC_INCHI>
InChI=1S/C11H18O6/c1-6-10(16-7(2)12)11(17-8(3)13)9(14-4)5-15-6/h6,9-11H,5H2,1-4H3
> <PUBCHEM_IUPAC_INCHIKEY>
UURZDJOBDKDXBB-UHFFFAOYSA-N
> <PUBCHEM_XLOGP3_AA>
0.1
> <PUBCHEM_EXACT_MASS>
246.11033829
> <PUBCHEM_MOLECULAR_FORMULA>
C11H18O6
> <PUBCHEM_MOLECULAR_WEIGHT>
246.26
> <PUBCHEM_OPENEYE_CAN_SMILES>
CC1C(C(C(CO1)OC)OC(=O)C)OC(=O)C
> <PUBCHEM_OPENEYE_ISO_SMILES>
CC1C(C(C(CO1)OC)OC(=O)C)OC(=O)C
> <PUBCHEM_CACTVS_TPSA>
71.1
> <PUBCHEM_MONOISOTOPIC_WEIGHT>
246.11033829
> <PUBCHEM_TOTAL_CHARGE>
0
> <PUBCHEM_HEAVY_ATOM_COUNT>
17
> <PUBCHEM_ATOM_DEF_STEREO_COUNT>
0
> <PUBCHEM_ATOM_UDEF_STEREO_COUNT>
4
> <PUBCHEM_BOND_DEF_STEREO_COUNT>
0
> <PUBCHEM_BOND_UDEF_STEREO_COUNT>
0
> <PUBCHEM_ISOTOPIC_ATOM_COUNT>
0
> <PUBCHEM_COMPONENT_COUNT>
1
> <PUBCHEM_CACTVS_TAUTO_COUNT>
-1
> <PUBCHEM_COORDINATE_TYPE>
1
5
255
> <PUBCHEM_BONDANNOTATIONS>
10  12  3
7  2  3
8  3  3
9  4  3
$$$$
