526685
  -OEChem-10302200292D
 78 81  0     1  0  0  0  0  0999 V2000
    8.2591    1.2647    0.0000 O   0  0  0  0  0  0  0  0  0  0  0  0
    3.7320   -3.2876    0.0000 O   0  0  0  0  0  0  0  0  0  0  0  0
    6.5270    1.2647    0.0000 O   0  0  0  0  0  0  0  0  0  0  0  0
   12.6497    2.3829    0.0000 O   0  0  0  0  0  0  0  0  0  0  0  0
   11.0033    2.9210    0.0000 O   0  0  0  0  0  0  0  0  0  0  0  0
    2.8718   -1.7843    0.0000 O   0  0  0  0  0  0  0  0  0  0  0  0
    9.1251   -0.2353    0.0000 C   0  0  3  0  0  0  0  0  0  0  0  0
    9.1251   -1.2353    0.0000 C   0  0  3  0  0  0  0  0  0  0  0  0
    8.2591   -1.7353    0.0000 C   0  0  3  0  0  0  0  0  0  0  0  0
    7.3931   -1.2353    0.0000 C   0  0  3  0  0  0  0  0  0  0  0  0
    6.4831   -1.7421    0.0000 C   0  0  3  0  0  0  0  0  0  0  0  0
   10.0713    0.0695    0.0000 C   0  0  3  0  0  0  0  0  0  0  0  0
    8.2591    0.2647    0.0000 C   0  0  3  0  0  0  0  0  0  0  0  0
    7.3931   -0.2353    0.0000 C   0  0  0  0  0  0  0  0  0  0  0  0
    6.4750   -2.7837    0.0000 C   0  0  3  0  0  0  0  0  0  0  0  0
   10.0713   -1.5400    0.0000 C   0  0  0  0  0  0  0  0  0  0  0  0
    8.2752   -2.7768    0.0000 C   0  0  0  0  0  0  0  0  0  0  0  0
   10.6550   -0.7353    0.0000 C   0  0  0  0  0  0  0  0  0  0  0  0
    7.3771   -3.3045    0.0000 C   0  0  0  0  0  0  0  0  0  0  0  0
    5.5562   -1.1780    0.0000 C   0  0  0  0  0  0  0  0  0  0  0  0
    9.1251    0.7647    0.0000 C   0  0  0  0  0  0  0  0  0  0  0  0
   10.3820    1.0200    0.0000 C   0  0  3  0  0  0  0  0  0  0  0  0
    5.5396   -3.3334    0.0000 C   0  0  0  0  0  0  0  0  0  0  0  0
    6.4908   -0.7422    0.0000 C   0  0  0  0  0  0  0  0  0  0  0  0
    4.6084   -1.7060    0.0000 C   0  0  0  0  0  0  0  0  0  0  0  0
    4.6000   -2.7910    0.0000 C   0  0  3  0  0  0  0  0  0  0  0  0
   11.3605    1.2262    0.0000 C   0  0  0  0  0  0  0  0  0  0  0  0
    9.7142    1.7643    0.0000 C   0  0  0  0  0  0  0  0  0  0  0  0
    7.3931    1.7647    0.0000 C   0  0  0  0  0  0  0  0  0  0  0  0
   11.6712    2.1767    0.0000 C   0  0  0  0  0  0  0  0  0  0  0  0
    7.3931    2.7647    0.0000 C   0  0  0  0  0  0  0  0  0  0  0  0
    2.8680   -2.7843    0.0000 C   0  0  0  0  0  0  0  0  0  0  0  0
    2.0000   -3.2809    0.0000 C   0  0  0  0  0  0  0  0  0  0  0  0
   12.9603    3.3334    0.0000 C   0  0  0  0  0  0  0  0  0  0  0  0
    9.1907   -1.8518    0.0000 H   0  0  0  0  0  0  0  0  0  0  0  0
    8.7984   -2.0411    0.0000 H   0  0  0  0  0  0  0  0  0  0  0  0
    7.9300   -0.9253    0.0000 H   0  0  0  0  0  0  0  0  0  0  0  0
   10.6838    0.1656    0.0000 H   0  0  0  0  0  0  0  0  0  0  0  0
    7.7222    0.5747    0.0000 H   0  0  0  0  0  0  0  0  0  0  0  0
    7.1810    0.3473    0.0000 H   0  0  0  0  0  0  0  0  0  0  0  0
    6.7825   -0.3429    0.0000 H   0  0  0  0  0  0  0  0  0  0  0  0
    6.4774   -3.4037    0.0000 H   0  0  0  0  0  0  0  0  0  0  0  0
    9.8203   -2.1069    0.0000 H   0  0  0  0  0  0  0  0  0  0  0  0
   10.6087   -1.8492    0.0000 H   0  0  0  0  0  0  0  0  0  0  0  0
    8.4932   -3.3572    0.0000 H   0  0  0  0  0  0  0  0  0  0  0  0
    8.8843   -2.6613    0.0000 H   0  0  0  0  0  0  0  0  0  0  0  0
   11.1158   -1.1500    0.0000 H   0  0  0  0  0  0  0  0  0  0  0  0
   11.1158   -0.3206    0.0000 H   0  0  0  0  0  0  0  0  0  0  0  0
    6.9798   -3.7805    0.0000 H   0  0  0  0  0  0  0  0  0  0  0  0
    7.7781   -3.7774    0.0000 H   0  0  0  0  0  0  0  0  0  0  0  0
    5.9644   -0.7114    0.0000 H   0  0  0  0  0  0  0  0  0  0  0  0
    5.1663   -0.6960    0.0000 H   0  0  0  0  0  0  0  0  0  0  0  0
    9.7451    0.7647    0.0000 H   0  0  0  0  0  0  0  0  0  0  0  0
    9.1251    1.3847    0.0000 H   0  0  0  0  0  0  0  0  0  0  0  0
    8.5051    0.7647    0.0000 H   0  0  0  0  0  0  0  0  0  0  0  0
   10.5746    1.6093    0.0000 H   0  0  0  0  0  0  0  0  0  0  0  0
    5.1423   -3.8094    0.0000 H   0  0  0  0  0  0  0  0  0  0  0  0
    5.9406   -3.8063    0.0000 H   0  0  0  0  0  0  0  0  0  0  0  0
    7.1108   -0.7469    0.0000 H   0  0  0  0  0  0  0  0  0  0  0  0
    6.4956   -0.1222    0.0000 H   0  0  0  0  0  0  0  0  0  0  0  0
    5.8708   -0.7374    0.0000 H   0  0  0  0  0  0  0  0  0  0  0  0
    4.4038   -1.1207    0.0000 H   0  0  0  0  0  0  0  0  0  0  0  0
    3.9967   -1.8074    0.0000 H   0  0  0  0  0  0  0  0  0  0  0  0
    4.0648   -2.4778    0.0000 H   0  0  0  0  0  0  0  0  0  0  0  0
   11.3811    0.6065    0.0000 H   0  0  0  0  0  0  0  0  0  0  0  0
   11.9743    1.1388    0.0000 H   0  0  0  0  0  0  0  0  0  0  0  0
   10.1756    2.1783    0.0000 H   0  0  0  0  0  0  0  0  0  0  0  0
    9.3001    2.2257    0.0000 H   0  0  0  0  0  0  0  0  0  0  0  0
    9.2527    1.3502    0.0000 H   0  0  0  0  0  0  0  0  0  0  0  0
    8.0131    2.7647    0.0000 H   0  0  0  0  0  0  0  0  0  0  0  0
    7.3931    3.3847    0.0000 H   0  0  0  0  0  0  0  0  0  0  0  0
    6.7731    2.7647    0.0000 H   0  0  0  0  0  0  0  0  0  0  0  0
    1.6921   -2.7428    0.0000 H   0  0  0  0  0  0  0  0  0  0  0  0
    1.4619   -3.5889    0.0000 H   0  0  0  0  0  0  0  0  0  0  0  0
    2.3079   -3.8191    0.0000 H   0  0  0  0  0  0  0  0  0  0  0  0
   13.5497    3.1408    0.0000 H   0  0  0  0  0  0  0  0  0  0  0  0
   13.1530    3.9228    0.0000 H   0  0  0  0  0  0  0  0  0  0  0  0
   12.3710    3.5261    0.0000 H   0  0  0  0  0  0  0  0  0  0  0  0
  1 13  1  0  0  0  0
  1 29  1  0  0  0  0
  2 26  1  0  0  0  0
  2 32  1  0  0  0  0
  3 29  2  0  0  0  0
  4 30  1  0  0  0  0
  4 34  1  0  0  0  0
  5 30  2  0  0  0  0
  6 32  2  0  0  0  0
  7  8  1  0  0  0  0
  7 12  1  0  0  0  0
  7 13  1  0  0  0  0
  7 21  1  0  0  0  0
  8  9  1  0  0  0  0
  8 16  1  0  0  0  0
  8 35  1  0  0  0  0
  9 10  1  0  0  0  0
  9 17  1  0  0  0  0
  9 36  1  0  0  0  0
 10 11  1  0  0  0  0
 10 14  1  0  0  0  0
 10 37  1  0  0  0  0
 11 15  1  0  0  0  0
 11 20  1  0  0  0  0
 11 24  1  0  0  0  0
 12 18  1  0  0  0  0
 12 22  1  0  0  0  0
 12 38  1  0  0  0  0
 13 14  1  0  0  0  0
 13 39  1  0  0  0  0
 14 40  1  0  0  0  0
 14 41  1  0  0  0  0
 15 19  1  0  0  0  0
 15 23  1  0  0  0  0
 15 42  1  0  0  0  0
 16 18  1  0  0  0  0
 16 43  1  0  0  0  0
 16 44  1  0  0  0  0
 17 19  1  0  0  0  0
 17 45  1  0  0  0  0
 17 46  1  0  0  0  0
 18 47  1  0  0  0  0
 18 48  1  0  0  0  0
 19 49  1  0  0  0  0
 19 50  1  0  0  0  0
 20 25  1  0  0  0  0
 20 51  1  0  0  0  0
 20 52  1  0  0  0  0
 21 53  1  0  0  0  0
 21 54  1  0  0  0  0
 21 55  1  0  0  0  0
 22 27  1  0  0  0  0
 22 28  1  0  0  0  0
 22 56  1  0  0  0  0
 23 26  1  0  0  0  0
 23 57  1  0  0  0  0
 23 58  1  0  0  0  0
 24 59  1  0  0  0  0
 24 60  1  0  0  0  0
 24 61  1  0  0  0  0
 25 26  1  0  0  0  0
 25 62  1  0  0  0  0
 25 63  1  0  0  0  0
 26 64  1  0  0  0  0
 27 30  1  0  0  0  0
 27 65  1  0  0  0  0
 27 66  1  0  0  0  0
 28 67  1  0  0  0  0
 28 68  1  0  0  0  0
 28 69  1  0  0  0  0
 29 31  1  0  0  0  0
 31 70  1  0  0  0  0
 31 71  1  0  0  0  0
 31 72  1  0  0  0  0
 32 33  1  0  0  0  0
 33 73  1  0  0  0  0
 33 74  1  0  0  0  0
 33 75  1  0  0  0  0
 34 76  1  0  0  0  0
 34 77  1  0  0  0  0
 34 78  1  0  0  0  0
M  END
> <PUBCHEM_COMPOUND_CID>
526685
> <PUBCHEM_COMPOUND_CANONICALIZED>
1
> <PUBCHEM_CACTVS_COMPLEXITY>
809
> <PUBCHEM_CACTVS_HBOND_ACCEPTOR>
6
> <PUBCHEM_CACTVS_HBOND_DONOR>
0
> <PUBCHEM_CACTVS_ROTATABLE_BOND>
8
> <PUBCHEM_CACTVS_SUBSKEYS>
AAADcfB4OAAAAAAAAAAAAAAAAAAAAYAAAAAwYMAAAAAAAGDAAAAAGgAAAAAADxSggAICCAAABAAIAACQCAAAAAAAAAAAAAEAAAAAABIAAAACAAAEAAAAAAGIyPCPgAAAAAAAAADAAAYAADAAAQAACAAAAA==
> <PUBCHEM_IUPAC_OPENEYE_NAME>
methyl 3-(3,12-diacetoxy-10,13-dimethyl-2,3,4,5,6,7,8,9,11,12,14,15,16,17-tetradecahydro-1H-cyclopenta[a]phenanthren-17-yl)butanoate
> <PUBCHEM_IUPAC_CAS_NAME>
3-(3,12-diacetyloxy-10,13-dimethyl-2,3,4,5,6,7,8,9,11,12,14,15,16,17-tetradecahydro-1H-cyclopenta[a]phenanthren-17-yl)butanoic acid methyl ester
> <PUBCHEM_IUPAC_NAME_MARKUP>
methyl 3-(3,12-diacetyloxy-10,13-dimethyl-2,3,4,5,6,7,8,9,11,12,14,15,16,17-tetradecahydro-1<I>H</I>-cyclopenta[a]phenanthren-17-yl)butanoate
> <PUBCHEM_IUPAC_NAME>
methyl 3-(3,12-diacetyloxy-10,13-dimethyl-2,3,4,5,6,7,8,9,11,12,14,15,16,17-tetradecahydro-1H-cyclopenta[a]phenanthren-17-yl)butanoate
> <PUBCHEM_IUPAC_SYSTEMATIC_NAME>
methyl 3-(3,12-diacetyloxy-10,13-dimethyl-2,3,4,5,6,7,8,9,11,12,14,15,16,17-tetradecahydro-1H-cyclopenta[a]phenanthren-17-yl)butanoate
> <PUBCHEM_IUPAC_TRADITIONAL_NAME>
3-(3,12-diacetoxy-10,13-dimethyl-2,3,4,5,6,7,8,9,11,12,14,15,16,17-tetradecahydro-1H-cyclopenta[a]phenanthren-17-yl)butyric acid methyl ester
> <PUBCHEM_IUPAC_INCHI>
InChI=1S/C28H44O6/c1-16(13-26(31)32-6)22-9-10-23-21-8-7-19-14-20(33-17(2)29)11-12-27(19,4)24(21)15-25(28(22,23)5)34-18(3)30/h16,19-25H,7-15H2,1-6H3
> <PUBCHEM_IUPAC_INCHIKEY>
JFWMQMQYQMZQHZ-UHFFFAOYSA-N
> <PUBCHEM_XLOGP3_AA>
6
> <PUBCHEM_EXACT_MASS>
476.31378912
> <PUBCHEM_MOLECULAR_FORMULA>
C28H44O6
> <PUBCHEM_MOLECULAR_WEIGHT>
476.6
> <PUBCHEM_OPENEYE_CAN_SMILES>
CC(CC(=O)OC)C1CCC2C1(C(CC3C2CCC4C3(CCC(C4)OC(=O)C)C)OC(=O)C)C
> <PUBCHEM_OPENEYE_ISO_SMILES>
CC(CC(=O)OC)C1CCC2C1(C(CC3C2CCC4C3(CCC(C4)OC(=O)C)C)OC(=O)C)C
> <PUBCHEM_CACTVS_TPSA>
78.9
> <PUBCHEM_MONOISOTOPIC_WEIGHT>
476.31378912
> <PUBCHEM_TOTAL_CHARGE>
0
> <PUBCHEM_HEAVY_ATOM_COUNT>
34
> <PUBCHEM_ATOM_DEF_STEREO_COUNT>
0
> <PUBCHEM_ATOM_UDEF_STEREO_COUNT>
10
> <PUBCHEM_BOND_DEF_STEREO_COUNT>
0
> <PUBCHEM_BOND_UDEF_STEREO_COUNT>
0
> <PUBCHEM_ISOTOPIC_ATOM_COUNT>
0
> <PUBCHEM_COMPONENT_COUNT>
1
> <PUBCHEM_CACTVS_TAUTO_COUNT>
-1
> <PUBCHEM_COORDINATE_TYPE>
1
5
255
> <PUBCHEM_BONDANNOTATIONS>
13  1  3
10  14  3
11  24  3
12  18  3
15  19  3
26  2  3
22  28  3
7  21  3
8  16  3
9  17  3
$$$$
