526668
  -OEChem-10302200292D
 40 41  0     1  0  0  0  0  0999 V2000
    3.3803    1.0000    0.0000 O   0  0  0  0  0  0  0  0  0  0  0  0
    5.0860    1.3008    0.0000 O   0  0  0  0  0  0  0  0  0  0  0  0
    2.6428   -0.6532    0.0000 N   0  0  0  0  0  0  0  0  0  0  0  0
    4.4937   -0.3268    0.0000 C   0  0  3  0  0  0  0  0  0  0  0  0
    3.6276   -0.8268    0.0000 C   0  0  3  0  0  0  0  0  0  0  0  0
    5.3597   -0.8268    0.0000 C   0  0  0  0  0  0  0  0  0  0  0  0
    5.3597   -1.8268    0.0000 C   0  0  0  0  0  0  0  0  0  0  0  0
    4.9937    0.5392    0.0000 C   0  0  0  0  0  0  0  0  0  0  0  0
    3.6276   -1.8268    0.0000 C   0  0  0  0  0  0  0  0  0  0  0  0
    4.3200    0.6580    0.0000 C   0  0  0  0  0  0  0  0  0  0  0  0
    4.4937   -2.3268    0.0000 C   0  0  0  0  0  0  0  0  0  0  0  0
    4.4937    1.4052    0.0000 C   0  0  0  0  0  0  0  0  0  0  0  0
    5.9937    0.5392    0.0000 C   0  0  0  0  0  0  0  0  0  0  0  0
    2.0000   -1.4191    0.0000 C   0  0  0  0  0  0  0  0  0  0  0  0
    4.9937    2.2713    0.0000 C   0  0  0  0  0  0  0  0  0  0  0  0
    6.4937    1.4052    0.0000 C   0  0  0  0  0  0  0  0  0  0  0  0
    5.9937    2.2713    0.0000 C   0  0  0  0  0  0  0  0  0  0  0  0
    3.2067    1.9848    0.0000 C   0  0  0  0  0  0  0  0  0  0  0  0
    2.2670    2.3268    0.0000 C   0  0  0  0  0  0  0  0  0  0  0  0
    3.5200   -0.2162    0.0000 H   0  0  0  0  0  0  0  0  0  0  0  0
    5.9703   -0.9345    0.0000 H   0  0  0  0  0  0  0  0  0  0  0  0
    5.5717   -0.2442    0.0000 H   0  0  0  0  0  0  0  0  0  0  0  0
    5.5717   -2.4094    0.0000 H   0  0  0  0  0  0  0  0  0  0  0  0
    5.9703   -1.7192    0.0000 H   0  0  0  0  0  0  0  0  0  0  0  0
    3.0907   -2.1368    0.0000 H   0  0  0  0  0  0  0  0  0  0  0  0
    4.4937   -2.9468    0.0000 H   0  0  0  0  0  0  0  0  0  0  0  0
    2.4308   -0.0706    0.0000 H   0  0  0  0  0  0  0  0  0  0  0  0
    3.8737    1.4052    0.0000 H   0  0  0  0  0  0  0  0  0  0  0  0
    6.3037    0.0023    0.0000 H   0  0  0  0  0  0  0  0  0  0  0  0
    1.5251   -1.0206    0.0000 H   0  0  0  0  0  0  0  0  0  0  0  0
    1.6014   -1.8940    0.0000 H   0  0  0  0  0  0  0  0  0  0  0  0
    2.4749   -1.8177    0.0000 H   0  0  0  0  0  0  0  0  0  0  0  0
    4.6837    2.8082    0.0000 H   0  0  0  0  0  0  0  0  0  0  0  0
    7.1137    1.4052    0.0000 H   0  0  0  0  0  0  0  0  0  0  0  0
    6.3037    2.8082    0.0000 H   0  0  0  0  0  0  0  0  0  0  0  0
    3.8267    1.9848    0.0000 H   0  0  0  0  0  0  0  0  0  0  0  0
    3.3143    2.5954    0.0000 H   0  0  0  0  0  0  0  0  0  0  0  0
    2.4790    2.9094    0.0000 H   0  0  0  0  0  0  0  0  0  0  0  0
    1.6844    2.5389    0.0000 H   0  0  0  0  0  0  0  0  0  0  0  0
    2.0549    1.7442    0.0000 H   0  0  0  0  0  0  0  0  0  0  0  0
  1 10  1  0  0  0  0
  1 18  1  0  0  0  0
  2 10  2  0  0  0  0
  3  5  1  0  0  0  0
  3 14  1  0  0  0  0
  3 27  1  0  0  0  0
  4  5  1  0  0  0  0
  4  6  1  0  0  0  0
  4  8  1  0  0  0  0
  4 10  1  0  0  0  0
  5  9  1  0  0  0  0
  5 20  1  0  0  0  0
  6  7  1  0  0  0  0
  6 21  1  0  0  0  0
  6 22  1  0  0  0  0
  7 11  1  0  0  0  0
  7 23  1  0  0  0  0
  7 24  1  0  0  0  0
  8 12  2  0  0  0  0
  8 13  1  0  0  0  0
  9 11  2  0  0  0  0
  9 25  1  0  0  0  0
 11 26  1  0  0  0  0
 12 15  1  0  0  0  0
 12 28  1  0  0  0  0
 13 16  2  0  0  0  0
 13 29  1  0  0  0  0
 14 30  1  0  0  0  0
 14 31  1  0  0  0  0
 14 32  1  0  0  0  0
 15 17  2  0  0  0  0
 15 33  1  0  0  0  0
 16 17  1  0  0  0  0
 16 34  1  0  0  0  0
 17 35  1  0  0  0  0
 18 19  1  0  0  0  0
 18 36  1  0  0  0  0
 18 37  1  0  0  0  0
 19 38  1  0  0  0  0
 19 39  1  0  0  0  0
 19 40  1  0  0  0  0
M  END
> <PUBCHEM_COMPOUND_CID>
526668
> <PUBCHEM_COMPOUND_CANONICALIZED>
1
> <PUBCHEM_CACTVS_COMPLEXITY>
334
> <PUBCHEM_CACTVS_HBOND_ACCEPTOR>
3
> <PUBCHEM_CACTVS_HBOND_DONOR>
1
> <PUBCHEM_CACTVS_ROTATABLE_BOND>
5
> <PUBCHEM_CACTVS_SUBSKEYS>
AAADceB6MAAAAAAAAAAAAAAAAAAAAAAAAAAwQAAAAAAAAAABAAAAHgAQAAAADijhmAYyCILABACIAiDSCACCAAAgAAAIiIEIAIgIIDqAlRGGIAAm0AEIiAeYyOCPgAAAAAAAAAAAAAAAAAAAAAAAAAAAAA==
> <PUBCHEM_IUPAC_OPENEYE_NAME>
ethyl 2-(methylamino)-1-phenyl-cyclohex-3-ene-1-carboxylate
> <PUBCHEM_IUPAC_CAS_NAME>
2-(methylamino)-1-phenyl-1-cyclohex-3-enecarboxylic acid ethyl ester
> <PUBCHEM_IUPAC_NAME_MARKUP>
ethyl 2-(methylamino)-1-phenylcyclohex-3-ene-1-carboxylate
> <PUBCHEM_IUPAC_NAME>
ethyl 2-(methylamino)-1-phenylcyclohex-3-ene-1-carboxylate
> <PUBCHEM_IUPAC_SYSTEMATIC_NAME>
ethyl 2-(methylamino)-1-phenyl-cyclohex-3-ene-1-carboxylate
> <PUBCHEM_IUPAC_TRADITIONAL_NAME>
2-(methylamino)-1-phenyl-cyclohex-3-ene-1-carboxylic acid ethyl ester
> <PUBCHEM_IUPAC_INCHI>
InChI=1S/C16H21NO2/c1-3-19-15(18)16(13-9-5-4-6-10-13)12-8-7-11-14(16)17-2/h4-7,9-11,14,17H,3,8,12H2,1-2H3
> <PUBCHEM_IUPAC_INCHIKEY>
PDJZPNKVLDWEKI-UHFFFAOYSA-N
> <PUBCHEM_XLOGP3_AA>
3.1
> <PUBCHEM_EXACT_MASS>
259.157228913
> <PUBCHEM_MOLECULAR_FORMULA>
C16H21NO2
> <PUBCHEM_MOLECULAR_WEIGHT>
259.34
> <PUBCHEM_OPENEYE_CAN_SMILES>
CCOC(=O)C1(CCC=CC1NC)C2=CC=CC=C2
> <PUBCHEM_OPENEYE_ISO_SMILES>
CCOC(=O)C1(CCC=CC1NC)C2=CC=CC=C2
> <PUBCHEM_CACTVS_TPSA>
38.3
> <PUBCHEM_MONOISOTOPIC_WEIGHT>
259.157228913
> <PUBCHEM_TOTAL_CHARGE>
0
> <PUBCHEM_HEAVY_ATOM_COUNT>
19
> <PUBCHEM_ATOM_DEF_STEREO_COUNT>
0
> <PUBCHEM_ATOM_UDEF_STEREO_COUNT>
2
> <PUBCHEM_BOND_DEF_STEREO_COUNT>
0
> <PUBCHEM_BOND_UDEF_STEREO_COUNT>
0
> <PUBCHEM_ISOTOPIC_ATOM_COUNT>
0
> <PUBCHEM_COMPONENT_COUNT>
1
> <PUBCHEM_CACTVS_TAUTO_COUNT>
-1
> <PUBCHEM_COORDINATE_TYPE>
1
5
255
> <PUBCHEM_BONDANNOTATIONS>
12  15  8
13  16  8
15  17  8
16  17  8
5  3  3
4  10  3
8  12  8
8  13  8
$$$$
