526612
  -OEChem-10302200292D
 36 37  0     1  0  0  0  0  0999 V2000
    3.1360    1.0000    0.0000 O   0  0  0  0  0  0  0  0  0  0  0  0
    4.8418    1.3008    0.0000 O   0  0  0  0  0  0  0  0  0  0  0  0
    5.9814   -2.3268    0.0000 O   0  0  0  0  0  0  0  0  0  0  0  0
    2.3985   -0.6532    0.0000 N   0  0  0  0  0  0  0  0  0  0  0  0
    4.2494   -0.3268    0.0000 C   0  0  3  0  0  0  0  0  0  0  0  0
    3.3833   -0.8268    0.0000 C   0  0  3  0  0  0  0  0  0  0  0  0
    5.1154   -0.8268    0.0000 C   0  0  0  0  0  0  0  0  0  0  0  0
    4.7494    0.5392    0.0000 C   0  0  0  0  0  0  0  0  0  0  0  0
    4.0757    0.6580    0.0000 C   0  0  0  0  0  0  0  0  0  0  0  0
    3.3833   -1.8268    0.0000 C   0  0  0  0  0  0  0  0  0  0  0  0
    5.1154   -1.8268    0.0000 C   0  0  0  0  0  0  0  0  0  0  0  0
    4.2494   -2.3268    0.0000 C   0  0  0  0  0  0  0  0  0  0  0  0
    4.2494    1.4052    0.0000 C   0  0  0  0  0  0  0  0  0  0  0  0
    5.7494    0.5392    0.0000 C   0  0  0  0  0  0  0  0  0  0  0  0
    4.7494    2.2713    0.0000 C   0  0  0  0  0  0  0  0  0  0  0  0
    6.2494    1.4052    0.0000 C   0  0  0  0  0  0  0  0  0  0  0  0
    5.7494    2.2713    0.0000 C   0  0  0  0  0  0  0  0  0  0  0  0
    2.9624    1.9848    0.0000 C   0  0  0  0  0  0  0  0  0  0  0  0
    2.0227    2.3268    0.0000 C   0  0  0  0  0  0  0  0  0  0  0  0
    3.2757   -0.2162    0.0000 H   0  0  0  0  0  0  0  0  0  0  0  0
    5.7260   -0.9345    0.0000 H   0  0  0  0  0  0  0  0  0  0  0  0
    5.3274   -0.2442    0.0000 H   0  0  0  0  0  0  0  0  0  0  0  0
    2.8464   -2.1368    0.0000 H   0  0  0  0  0  0  0  0  0  0  0  0
    4.2494   -2.9468    0.0000 H   0  0  0  0  0  0  0  0  0  0  0  0
    2.0000   -1.1281    0.0000 H   0  0  0  0  0  0  0  0  0  0  0  0
    2.1865   -0.0706    0.0000 H   0  0  0  0  0  0  0  0  0  0  0  0
    3.6294    1.4052    0.0000 H   0  0  0  0  0  0  0  0  0  0  0  0
    6.0594    0.0023    0.0000 H   0  0  0  0  0  0  0  0  0  0  0  0
    4.4394    2.8082    0.0000 H   0  0  0  0  0  0  0  0  0  0  0  0
    6.8694    1.4052    0.0000 H   0  0  0  0  0  0  0  0  0  0  0  0
    6.0594    2.8082    0.0000 H   0  0  0  0  0  0  0  0  0  0  0  0
    3.5824    1.9848    0.0000 H   0  0  0  0  0  0  0  0  0  0  0  0
    3.0700    2.5954    0.0000 H   0  0  0  0  0  0  0  0  0  0  0  0
    2.2347    2.9094    0.0000 H   0  0  0  0  0  0  0  0  0  0  0  0
    1.4401    2.5389    0.0000 H   0  0  0  0  0  0  0  0  0  0  0  0
    1.8106    1.7442    0.0000 H   0  0  0  0  0  0  0  0  0  0  0  0
  1  9  1  0  0  0  0
  1 18  1  0  0  0  0
  2  9  2  0  0  0  0
  3 11  2  0  0  0  0
  4  6  1  0  0  0  0
  4 25  1  0  0  0  0
  4 26  1  0  0  0  0
  5  6  1  0  0  0  0
  5  7  1  0  0  0  0
  5  8  1  0  0  0  0
  5  9  1  0  0  0  0
  6 10  1  0  0  0  0
  6 20  1  0  0  0  0
  7 11  1  0  0  0  0
  7 21  1  0  0  0  0
  7 22  1  0  0  0  0
  8 13  2  0  0  0  0
  8 14  1  0  0  0  0
 10 12  2  0  0  0  0
 10 23  1  0  0  0  0
 11 12  1  0  0  0  0
 12 24  1  0  0  0  0
 13 15  1  0  0  0  0
 13 27  1  0  0  0  0
 14 16  2  0  0  0  0
 14 28  1  0  0  0  0
 15 17  2  0  0  0  0
 15 29  1  0  0  0  0
 16 17  1  0  0  0  0
 16 30  1  0  0  0  0
 17 31  1  0  0  0  0
 18 19  1  0  0  0  0
 18 32  1  0  0  0  0
 18 33  1  0  0  0  0
 19 34  1  0  0  0  0
 19 35  1  0  0  0  0
 19 36  1  0  0  0  0
M  END
> <PUBCHEM_COMPOUND_CID>
526612
> <PUBCHEM_COMPOUND_CANONICALIZED>
1
> <PUBCHEM_CACTVS_COMPLEXITY>
385
> <PUBCHEM_CACTVS_HBOND_ACCEPTOR>
4
> <PUBCHEM_CACTVS_HBOND_DONOR>
1
> <PUBCHEM_CACTVS_ROTATABLE_BOND>
4
> <PUBCHEM_CACTVS_SUBSKEYS>
AAADceByMAAAAAAAAAAAAAAAAAAAAAAAAAAwQAAAAAAAAAABAAAAHgAQAAAADizhmAYyCIBABACIAqDSCACCAAAgAAAIiIEAAMgIIDqAlRGCIAAm0AEIiYefyOCPgAAAAAAAAAAAAAAAAAAAAAAAAAAAAA==
> <PUBCHEM_IUPAC_OPENEYE_NAME>
ethyl 2-amino-5-oxo-1-phenyl-cyclohex-3-ene-1-carboxylate
> <PUBCHEM_IUPAC_CAS_NAME>
2-amino-5-oxo-1-phenyl-1-cyclohex-3-enecarboxylic acid ethyl ester
> <PUBCHEM_IUPAC_NAME_MARKUP>
ethyl 2-amino-5-oxo-1-phenylcyclohex-3-ene-1-carboxylate
> <PUBCHEM_IUPAC_NAME>
ethyl 2-amino-5-oxo-1-phenylcyclohex-3-ene-1-carboxylate
> <PUBCHEM_IUPAC_SYSTEMATIC_NAME>
ethyl 2-azanyl-5-oxidanylidene-1-phenyl-cyclohex-3-ene-1-carboxylate
> <PUBCHEM_IUPAC_TRADITIONAL_NAME>
2-amino-5-keto-1-phenyl-cyclohex-3-ene-1-carboxylic acid ethyl ester
> <PUBCHEM_IUPAC_INCHI>
InChI=1S/C15H17NO3/c1-2-19-14(18)15(11-6-4-3-5-7-11)10-12(17)8-9-13(15)16/h3-9,13H,2,10,16H2,1H3
> <PUBCHEM_IUPAC_INCHIKEY>
OTRJPTAJPGIPRO-UHFFFAOYSA-N
> <PUBCHEM_XLOGP3_AA>
1.4
> <PUBCHEM_EXACT_MASS>
259.12084340
> <PUBCHEM_MOLECULAR_FORMULA>
C15H17NO3
> <PUBCHEM_MOLECULAR_WEIGHT>
259.30
> <PUBCHEM_OPENEYE_CAN_SMILES>
CCOC(=O)C1(CC(=O)C=CC1N)C2=CC=CC=C2
> <PUBCHEM_OPENEYE_ISO_SMILES>
CCOC(=O)C1(CC(=O)C=CC1N)C2=CC=CC=C2
> <PUBCHEM_CACTVS_TPSA>
69.4
> <PUBCHEM_MONOISOTOPIC_WEIGHT>
259.12084340
> <PUBCHEM_TOTAL_CHARGE>
0
> <PUBCHEM_HEAVY_ATOM_COUNT>
19
> <PUBCHEM_ATOM_DEF_STEREO_COUNT>
0
> <PUBCHEM_ATOM_UDEF_STEREO_COUNT>
2
> <PUBCHEM_BOND_DEF_STEREO_COUNT>
0
> <PUBCHEM_BOND_UDEF_STEREO_COUNT>
0
> <PUBCHEM_ISOTOPIC_ATOM_COUNT>
0
> <PUBCHEM_COMPONENT_COUNT>
1
> <PUBCHEM_CACTVS_TAUTO_COUNT>
-1
> <PUBCHEM_COORDINATE_TYPE>
1
5
255
> <PUBCHEM_BONDANNOTATIONS>
13  15  8
14  16  8
15  17  8
16  17  8
6  4  3
5  9  3
8  13  8
8  14  8
$$$$
