526635
  -OEChem-10302200292D
 30 30  0     1  0  0  0  0  0999 V2000
    5.0032   -2.0194    0.0000 O   0  0  0  0  0  0  0  0  0  0  0  0
    4.5032    0.5194    0.0000 O   0  0  0  0  0  0  0  0  0  0  0  0
    2.7431   -0.7593    0.0000 O   0  0  0  0  0  0  0  0  0  0  0  0
    7.0064   -1.4285    0.0000 O   0  0  0  0  0  0  0  0  0  0  0  0
    6.2353    0.5194    0.0000 O   0  0  0  0  0  0  0  0  0  0  0  0
    4.5032   -0.4806    0.0000 C   0  0  3  0  0  0  0  0  0  0  0  0
    5.3122   -1.0684    0.0000 C   0  0  3  0  0  0  0  0  0  0  0  0
    3.6942   -1.0684    0.0000 C   0  0  3  0  0  0  0  0  0  0  0  0
    4.0032   -2.0194    0.0000 C   0  0  0  0  0  0  0  0  0  0  0  0
    6.2633   -0.7593    0.0000 C   0  0  0  0  0  0  0  0  0  0  0  0
    2.0000   -1.4285    0.0000 C   0  0  0  0  0  0  0  0  0  0  0  0
    5.3692    1.0194    0.0000 C   0  0  0  0  0  0  0  0  0  0  0  0
    7.9575   -1.1195    0.0000 C   0  0  0  0  0  0  0  0  0  0  0  0
    5.3692    2.0194    0.0000 C   0  0  0  0  0  0  0  0  0  0  0  0
    3.9508   -0.1991    0.0000 H   0  0  0  0  0  0  0  0  0  0  0  0
    5.7506   -1.5068    0.0000 H   0  0  0  0  0  0  0  0  0  0  0  0
    3.2558   -1.5068    0.0000 H   0  0  0  0  0  0  0  0  0  0  0  0
    3.3968   -2.1483    0.0000 H   0  0  0  0  0  0  0  0  0  0  0  0
    4.0680   -2.6360    0.0000 H   0  0  0  0  0  0  0  0  0  0  0  0
    6.7519   -0.3776    0.0000 H   0  0  0  0  0  0  0  0  0  0  0  0
    5.9722   -0.2119    0.0000 H   0  0  0  0  0  0  0  0  0  0  0  0
    1.5851   -0.9677    0.0000 H   0  0  0  0  0  0  0  0  0  0  0  0
    1.5392   -1.8433    0.0000 H   0  0  0  0  0  0  0  0  0  0  0  0
    2.4149   -1.8892    0.0000 H   0  0  0  0  0  0  0  0  0  0  0  0
    8.1491   -1.7091    0.0000 H   0  0  0  0  0  0  0  0  0  0  0  0
    8.5472   -0.9279    0.0000 H   0  0  0  0  0  0  0  0  0  0  0  0
    7.7659   -0.5298    0.0000 H   0  0  0  0  0  0  0  0  0  0  0  0
    5.9892    2.0194    0.0000 H   0  0  0  0  0  0  0  0  0  0  0  0
    5.3692    2.6394    0.0000 H   0  0  0  0  0  0  0  0  0  0  0  0
    4.7492    2.0194    0.0000 H   0  0  0  0  0  0  0  0  0  0  0  0
  1  7  1  0  0  0  0
  1  9  1  0  0  0  0
  2  6  1  0  0  0  0
  2 12  1  0  0  0  0
  3  8  1  0  0  0  0
  3 11  1  0  0  0  0
  4 10  1  0  0  0  0
  4 13  1  0  0  0  0
  5 12  2  0  0  0  0
  6  7  1  0  0  0  0
  6  8  1  0  0  0  0
  6 15  1  0  0  0  0
  7 10  1  0  0  0  0
  7 16  1  0  0  0  0
  8  9  1  0  0  0  0
  8 17  1  0  0  0  0
  9 18  1  0  0  0  0
  9 19  1  0  0  0  0
 10 20  1  0  0  0  0
 10 21  1  0  0  0  0
 11 22  1  0  0  0  0
 11 23  1  0  0  0  0
 11 24  1  0  0  0  0
 12 14  1  0  0  0  0
 13 25  1  0  0  0  0
 13 26  1  0  0  0  0
 13 27  1  0  0  0  0
 14 28  1  0  0  0  0
 14 29  1  0  0  0  0
 14 30  1  0  0  0  0
M  END
> <PUBCHEM_COMPOUND_CID>
526635
> <PUBCHEM_COMPOUND_CANONICALIZED>
1
> <PUBCHEM_CACTVS_COMPLEXITY>
194
> <PUBCHEM_CACTVS_HBOND_ACCEPTOR>
5
> <PUBCHEM_CACTVS_HBOND_DONOR>
0
> <PUBCHEM_CACTVS_ROTATABLE_BOND>
5
> <PUBCHEM_CACTVS_SUBSKEYS>
AAADceBwOAAAAAAAAAAAAAAAAAAAASAAAAAAAAAAAAAAAAAAAAAAGgAAAAAACBSggAICCAAABAAIAACQCAAAAAAAAAAAAAAAAAABAAIAAAACAAAFAAACAADAIAgAAAAAAAAAAAAAAAAAAAAAAAAAAAAAAA==
> <PUBCHEM_IUPAC_OPENEYE_NAME>
[4-methoxy-2-(methoxymethyl)tetrahydrofuran-3-yl] acetate
> <PUBCHEM_IUPAC_CAS_NAME>
acetic acid [4-methoxy-2-(methoxymethyl)-3-oxolanyl] ester
> <PUBCHEM_IUPAC_NAME_MARKUP>
[4-methoxy-2-(methoxymethyl)oxolan-3-yl] acetate
> <PUBCHEM_IUPAC_NAME>
[4-methoxy-2-(methoxymethyl)oxolan-3-yl] acetate
> <PUBCHEM_IUPAC_SYSTEMATIC_NAME>
[4-methoxy-2-(methoxymethyl)oxolan-3-yl] ethanoate
> <PUBCHEM_IUPAC_TRADITIONAL_NAME>
acetic acid [4-methoxy-2-(methoxymethyl)tetrahydrofuran-3-yl] ester
> <PUBCHEM_IUPAC_INCHI>
InChI=1S/C9H16O5/c1-6(10)14-9-7(12-3)5-13-8(9)4-11-2/h7-9H,4-5H2,1-3H3
> <PUBCHEM_IUPAC_INCHIKEY>
XGUPLFWZEJKRNN-UHFFFAOYSA-N
> <PUBCHEM_XLOGP3_AA>
-0.4
> <PUBCHEM_EXACT_MASS>
204.09977361
> <PUBCHEM_MOLECULAR_FORMULA>
C9H16O5
> <PUBCHEM_MOLECULAR_WEIGHT>
204.22
> <PUBCHEM_OPENEYE_CAN_SMILES>
CC(=O)OC1C(COC1COC)OC
> <PUBCHEM_OPENEYE_ISO_SMILES>
CC(=O)OC1C(COC1COC)OC
> <PUBCHEM_CACTVS_TPSA>
54
> <PUBCHEM_MONOISOTOPIC_WEIGHT>
204.09977361
> <PUBCHEM_TOTAL_CHARGE>
0
> <PUBCHEM_HEAVY_ATOM_COUNT>
14
> <PUBCHEM_ATOM_DEF_STEREO_COUNT>
0
> <PUBCHEM_ATOM_UDEF_STEREO_COUNT>
3
> <PUBCHEM_BOND_DEF_STEREO_COUNT>
0
> <PUBCHEM_BOND_UDEF_STEREO_COUNT>
0
> <PUBCHEM_ISOTOPIC_ATOM_COUNT>
0
> <PUBCHEM_COMPONENT_COUNT>
1
> <PUBCHEM_CACTVS_TAUTO_COUNT>
-1
> <PUBCHEM_COORDINATE_TYPE>
1
5
255
> <PUBCHEM_BONDANNOTATIONS>
6  2  3
8  3  3
7  10  3
$$$$
