526786
  -OEChem-10302200292D
 81 80  0     1  0  0  0  0  0999 V2000
    9.7942   -3.7500    0.0000 Si  0  0  0  0  0  0  0  0  0  0  0  0
    8.9282   -4.2500    0.0000 O   0  0  0  0  0  0  0  0  0  0  0  0
    2.8660   -3.7500    0.0000 O   0  0  0  0  0  0  0  0  0  0  0  0
    3.7320   -5.2500    0.0000 O   0  0  0  0  0  0  0  0  0  0  0  0
   10.6603   -3.2500    0.0000 C   0  0  0  0  0  0  0  0  0  0  0  0
    8.0622   -3.7500    0.0000 C   0  0  3  0  0  0  0  0  0  0  0  0
    8.0622   -2.7500    0.0000 C   0  0  0  0  0  0  0  0  0  0  0  0
    9.2942   -2.8840    0.0000 C   0  0  0  0  0  0  0  0  0  0  0  0
   10.2942   -4.6160    0.0000 C   0  0  0  0  0  0  0  0  0  0  0  0
   11.5263   -2.7500    0.0000 C   0  0  0  0  0  0  0  0  0  0  0  0
   10.1603   -2.3840    0.0000 C   0  0  0  0  0  0  0  0  0  0  0  0
   11.1603   -4.1160    0.0000 C   0  0  0  0  0  0  0  0  0  0  0  0
    7.1962   -4.2500    0.0000 C   0  0  0  0  0  0  0  0  0  0  0  0
    7.1962   -2.2500    0.0000 C   0  0  0  0  0  0  0  0  0  0  0  0
    6.3301   -3.7500    0.0000 C   0  0  0  0  0  0  0  0  0  0  0  0
    7.1962   -1.2500    0.0000 C   0  0  0  0  0  0  0  0  0  0  0  0
    6.3301   -0.7500    0.0000 C   0  0  0  0  0  0  0  0  0  0  0  0
    5.4641   -4.2500    0.0000 C   0  0  0  0  0  0  0  0  0  0  0  0
    6.3301    0.2500    0.0000 C   0  0  0  0  0  0  0  0  0  0  0  0
    5.4641    0.7500    0.0000 C   0  0  0  0  0  0  0  0  0  0  0  0
    5.4641    1.7500    0.0000 C   0  0  0  0  0  0  0  0  0  0  0  0
    4.5981   -3.7500    0.0000 C   0  0  0  0  0  0  0  0  0  0  0  0
    4.5981    2.2500    0.0000 C   0  0  0  0  0  0  0  0  0  0  0  0
    4.5981    3.2500    0.0000 C   0  0  0  0  0  0  0  0  0  0  0  0
    3.7320    3.7500    0.0000 C   0  0  0  0  0  0  0  0  0  0  0  0
    3.7320   -4.2500    0.0000 C   0  0  0  0  0  0  0  0  0  0  0  0
    3.7320    4.7500    0.0000 C   0  0  0  0  0  0  0  0  0  0  0  0
    2.8660    5.2500    0.0000 C   0  0  0  0  0  0  0  0  0  0  0  0
    2.0000   -4.2500    0.0000 C   0  0  0  0  0  0  0  0  0  0  0  0
    8.0622   -4.3700    0.0000 H   0  0  0  0  0  0  0  0  0  0  0  0
    8.6728   -2.8577    0.0000 H   0  0  0  0  0  0  0  0  0  0  0  0
    8.2742   -2.1674    0.0000 H   0  0  0  0  0  0  0  0  0  0  0  0
    9.8312   -2.5740    0.0000 H   0  0  0  0  0  0  0  0  0  0  0  0
    8.9842   -2.3470    0.0000 H   0  0  0  0  0  0  0  0  0  0  0  0
    8.7573   -3.1940    0.0000 H   0  0  0  0  0  0  0  0  0  0  0  0
    9.7573   -4.9260    0.0000 H   0  0  0  0  0  0  0  0  0  0  0  0
   10.6042   -5.1530    0.0000 H   0  0  0  0  0  0  0  0  0  0  0  0
   10.8312   -4.3060    0.0000 H   0  0  0  0  0  0  0  0  0  0  0  0
   11.8363   -3.2869    0.0000 H   0  0  0  0  0  0  0  0  0  0  0  0
   12.0632   -2.4400    0.0000 H   0  0  0  0  0  0  0  0  0  0  0  0
   11.2163   -2.2131    0.0000 H   0  0  0  0  0  0  0  0  0  0  0  0
   10.6972   -2.0740    0.0000 H   0  0  0  0  0  0  0  0  0  0  0  0
    9.8503   -1.8470    0.0000 H   0  0  0  0  0  0  0  0  0  0  0  0
    9.6233   -2.6940    0.0000 H   0  0  0  0  0  0  0  0  0  0  0  0
   10.6233   -4.4260    0.0000 H   0  0  0  0  0  0  0  0  0  0  0  0
   11.4703   -4.6530    0.0000 H   0  0  0  0  0  0  0  0  0  0  0  0
   11.6972   -3.8060    0.0000 H   0  0  0  0  0  0  0  0  0  0  0  0
    6.7976   -4.7250    0.0000 H   0  0  0  0  0  0  0  0  0  0  0  0
    7.5947   -4.7250    0.0000 H   0  0  0  0  0  0  0  0  0  0  0  0
    6.5856   -2.1423    0.0000 H   0  0  0  0  0  0  0  0  0  0  0  0
    6.9841   -2.8326    0.0000 H   0  0  0  0  0  0  0  0  0  0  0  0
    6.7287   -3.2750    0.0000 H   0  0  0  0  0  0  0  0  0  0  0  0
    5.9316   -3.2750    0.0000 H   0  0  0  0  0  0  0  0  0  0  0  0
    7.8067   -1.3577    0.0000 H   0  0  0  0  0  0  0  0  0  0  0  0
    7.4082   -0.6674    0.0000 H   0  0  0  0  0  0  0  0  0  0  0  0
    5.7196   -0.6423    0.0000 H   0  0  0  0  0  0  0  0  0  0  0  0
    6.1181   -1.3326    0.0000 H   0  0  0  0  0  0  0  0  0  0  0  0
    5.0656   -4.7250    0.0000 H   0  0  0  0  0  0  0  0  0  0  0  0
    5.8626   -4.7250    0.0000 H   0  0  0  0  0  0  0  0  0  0  0  0
    6.9407    0.1423    0.0000 H   0  0  0  0  0  0  0  0  0  0  0  0
    6.5422    0.8326    0.0000 H   0  0  0  0  0  0  0  0  0  0  0  0
    4.8535    0.8577    0.0000 H   0  0  0  0  0  0  0  0  0  0  0  0
    5.2520    0.1674    0.0000 H   0  0  0  0  0  0  0  0  0  0  0  0
    6.0747    1.6423    0.0000 H   0  0  0  0  0  0  0  0  0  0  0  0
    5.6762    2.3326    0.0000 H   0  0  0  0  0  0  0  0  0  0  0  0
    4.9966   -3.2750    0.0000 H   0  0  0  0  0  0  0  0  0  0  0  0
    4.1996   -3.2750    0.0000 H   0  0  0  0  0  0  0  0  0  0  0  0
    3.9875    2.3577    0.0000 H   0  0  0  0  0  0  0  0  0  0  0  0
    4.3860    1.6674    0.0000 H   0  0  0  0  0  0  0  0  0  0  0  0
    5.2087    3.1423    0.0000 H   0  0  0  0  0  0  0  0  0  0  0  0
    4.8101    3.8326    0.0000 H   0  0  0  0  0  0  0  0  0  0  0  0
    3.1215    3.8577    0.0000 H   0  0  0  0  0  0  0  0  0  0  0  0
    3.5200    3.1674    0.0000 H   0  0  0  0  0  0  0  0  0  0  0  0
    4.3426    4.6423    0.0000 H   0  0  0  0  0  0  0  0  0  0  0  0
    3.9441    5.3326    0.0000 H   0  0  0  0  0  0  0  0  0  0  0  0
    3.1760    5.7869    0.0000 H   0  0  0  0  0  0  0  0  0  0  0  0
    2.3291    5.5600    0.0000 H   0  0  0  0  0  0  0  0  0  0  0  0
    2.5560    4.7131    0.0000 H   0  0  0  0  0  0  0  0  0  0  0  0
    1.6900   -3.7131    0.0000 H   0  0  0  0  0  0  0  0  0  0  0  0
    1.4631   -4.5600    0.0000 H   0  0  0  0  0  0  0  0  0  0  0  0
    2.3100   -4.7869    0.0000 H   0  0  0  0  0  0  0  0  0  0  0  0
  1  2  1  0  0  0  0
  1  5  1  0  0  0  0
  1  8  1  0  0  0  0
  1  9  1  0  0  0  0
  2  6  1  0  0  0  0
  3 26  1  0  0  0  0
  3 29  1  0  0  0  0
  4 26  2  0  0  0  0
  5 10  1  0  0  0  0
  5 11  1  0  0  0  0
  5 12  1  0  0  0  0
  6  7  1  0  0  0  0
  6 13  1  0  0  0  0
  6 30  1  0  0  0  0
  7 14  1  0  0  0  0
  7 31  1  0  0  0  0
  7 32  1  0  0  0  0
  8 33  1  0  0  0  0
  8 34  1  0  0  0  0
  8 35  1  0  0  0  0
  9 36  1  0  0  0  0
  9 37  1  0  0  0  0
  9 38  1  0  0  0  0
 10 39  1  0  0  0  0
 10 40  1  0  0  0  0
 10 41  1  0  0  0  0
 11 42  1  0  0  0  0
 11 43  1  0  0  0  0
 11 44  1  0  0  0  0
 12 45  1  0  0  0  0
 12 46  1  0  0  0  0
 12 47  1  0  0  0  0
 13 15  1  0  0  0  0
 13 48  1  0  0  0  0
 13 49  1  0  0  0  0
 14 16  1  0  0  0  0
 14 50  1  0  0  0  0
 14 51  1  0  0  0  0
 15 18  1  0  0  0  0
 15 52  1  0  0  0  0
 15 53  1  0  0  0  0
 16 17  1  0  0  0  0
 16 54  1  0  0  0  0
 16 55  1  0  0  0  0
 17 19  1  0  0  0  0
 17 56  1  0  0  0  0
 17 57  1  0  0  0  0
 18 22  1  0  0  0  0
 18 58  1  0  0  0  0
 18 59  1  0  0  0  0
 19 20  1  0  0  0  0
 19 60  1  0  0  0  0
 19 61  1  0  0  0  0
 20 21  1  0  0  0  0
 20 62  1  0  0  0  0
 20 63  1  0  0  0  0
 21 23  1  0  0  0  0
 21 64  1  0  0  0  0
 21 65  1  0  0  0  0
 22 26  1  0  0  0  0
 22 66  1  0  0  0  0
 22 67  1  0  0  0  0
 23 24  1  0  0  0  0
 23 68  1  0  0  0  0
 23 69  1  0  0  0  0
 24 25  1  0  0  0  0
 24 70  1  0  0  0  0
 24 71  1  0  0  0  0
 25 27  1  0  0  0  0
 25 72  1  0  0  0  0
 25 73  1  0  0  0  0
 27 28  1  0  0  0  0
 27 74  1  0  0  0  0
 27 75  1  0  0  0  0
 28 76  1  0  0  0  0
 28 77  1  0  0  0  0
 28 78  1  0  0  0  0
 29 79  1  0  0  0  0
 29 80  1  0  0  0  0
 29 81  1  0  0  0  0
M  END
> <PUBCHEM_COMPOUND_CID>
526786
> <PUBCHEM_COMPOUND_CANONICALIZED>
1
> <PUBCHEM_CACTVS_COMPLEXITY>
401
> <PUBCHEM_CACTVS_HBOND_ACCEPTOR>
3
> <PUBCHEM_CACTVS_HBOND_DONOR>
0
> <PUBCHEM_CACTVS_ROTATABLE_BOND>
20
> <PUBCHEM_CACTVS_SUBSKEYS>
AAADcfB4MAgAAAAAAAAAAAAAAAAAAAAAAAAAAAAAAAAAAAAAAAAAGhAAAEAADBSgoAJCCAAABAEIAACQCAAAAAAAAAAAAAEAAAAAABIAAAAAAAAEAAAAAAGIyKCAAAAAAAAAAAAAAAAAAAAAAAAAAAAAAA==
> <PUBCHEM_IUPAC_OPENEYE_NAME>
methyl 6-[tert-butyl(dimethyl)silyl]oxyoctadecanoate
> <PUBCHEM_IUPAC_CAS_NAME>
6-[tert-butyl(dimethyl)silyl]oxyoctadecanoic acid methyl ester
> <PUBCHEM_IUPAC_NAME_MARKUP>
methyl 6-[<I>tert</I>-butyl(dimethyl)silyl]oxyoctadecanoate
> <PUBCHEM_IUPAC_NAME>
methyl 6-[tert-butyl(dimethyl)silyl]oxyoctadecanoate
> <PUBCHEM_IUPAC_SYSTEMATIC_NAME>
methyl 6-[tert-butyl(dimethyl)silyl]oxyoctadecanoate
> <PUBCHEM_IUPAC_TRADITIONAL_NAME>
6-[tert-butyl(dimethyl)silyl]oxystearic acid methyl ester
> <PUBCHEM_IUPAC_INCHI>
InChI=1S/C25H52O3Si/c1-8-9-10-11-12-13-14-15-16-17-20-23(21-18-19-22-24(26)27-5)28-29(6,7)25(2,3)4/h23H,8-22H2,1-7H3
> <PUBCHEM_IUPAC_INCHIKEY>
LJCXJJZSIUCDRT-UHFFFAOYSA-N
> <PUBCHEM_EXACT_MASS>
428.36857205
> <PUBCHEM_MOLECULAR_FORMULA>
C25H52O3Si
> <PUBCHEM_MOLECULAR_WEIGHT>
428.8
> <PUBCHEM_OPENEYE_CAN_SMILES>
CCCCCCCCCCCCC(CCCCC(=O)OC)O[Si](C)(C)C(C)(C)C
> <PUBCHEM_OPENEYE_ISO_SMILES>
CCCCCCCCCCCCC(CCCCC(=O)OC)O[Si](C)(C)C(C)(C)C
> <PUBCHEM_CACTVS_TPSA>
35.5
> <PUBCHEM_MONOISOTOPIC_WEIGHT>
428.36857205
> <PUBCHEM_TOTAL_CHARGE>
0
> <PUBCHEM_HEAVY_ATOM_COUNT>
29
> <PUBCHEM_ATOM_DEF_STEREO_COUNT>
0
> <PUBCHEM_ATOM_UDEF_STEREO_COUNT>
1
> <PUBCHEM_BOND_DEF_STEREO_COUNT>
0
> <PUBCHEM_BOND_UDEF_STEREO_COUNT>
0
> <PUBCHEM_ISOTOPIC_ATOM_COUNT>
0
> <PUBCHEM_COMPONENT_COUNT>
1
> <PUBCHEM_CACTVS_TAUTO_COUNT>
-1
> <PUBCHEM_COORDINATE_TYPE>
1
5
255
> <PUBCHEM_BONDANNOTATIONS>
6  7  3
$$$$
