526779
  -OEChem-10302200292D
 81 80  0     1  0  0  0  0  0999 V2000
   11.5263   -3.0000    0.0000 Si  0  0  0  0  0  0  0  0  0  0  0  0
   10.6603   -3.5000    0.0000 O   0  0  0  0  0  0  0  0  0  0  0  0
    2.8660   -3.0000    0.0000 O   0  0  0  0  0  0  0  0  0  0  0  0
    3.7320   -4.5000    0.0000 O   0  0  0  0  0  0  0  0  0  0  0  0
   12.3923   -2.5000    0.0000 C   0  0  0  0  0  0  0  0  0  0  0  0
    9.7942   -3.0000    0.0000 C   0  0  3  0  0  0  0  0  0  0  0  0
    9.7942   -2.0000    0.0000 C   0  0  0  0  0  0  0  0  0  0  0  0
    8.9282   -3.5000    0.0000 C   0  0  0  0  0  0  0  0  0  0  0  0
   11.0263   -2.1340    0.0000 C   0  0  0  0  0  0  0  0  0  0  0  0
   12.0263   -3.8660    0.0000 C   0  0  0  0  0  0  0  0  0  0  0  0
   13.2583   -2.0000    0.0000 C   0  0  0  0  0  0  0  0  0  0  0  0
   11.8923   -1.6340    0.0000 C   0  0  0  0  0  0  0  0  0  0  0  0
   12.8923   -3.3660    0.0000 C   0  0  0  0  0  0  0  0  0  0  0  0
    8.9282   -1.5000    0.0000 C   0  0  0  0  0  0  0  0  0  0  0  0
    8.0622   -3.0000    0.0000 C   0  0  0  0  0  0  0  0  0  0  0  0
    8.9282   -0.5000    0.0000 C   0  0  0  0  0  0  0  0  0  0  0  0
    7.1962   -3.5000    0.0000 C   0  0  0  0  0  0  0  0  0  0  0  0
    8.0622    0.0000    0.0000 C   0  0  0  0  0  0  0  0  0  0  0  0
    6.3301   -3.0000    0.0000 C   0  0  0  0  0  0  0  0  0  0  0  0
    8.0622    1.0000    0.0000 C   0  0  0  0  0  0  0  0  0  0  0  0
    7.1962    1.5000    0.0000 C   0  0  0  0  0  0  0  0  0  0  0  0
    5.4641   -3.5000    0.0000 C   0  0  0  0  0  0  0  0  0  0  0  0
    7.1962    2.5000    0.0000 C   0  0  0  0  0  0  0  0  0  0  0  0
    6.3301    3.0000    0.0000 C   0  0  0  0  0  0  0  0  0  0  0  0
    4.5981   -3.0000    0.0000 C   0  0  0  0  0  0  0  0  0  0  0  0
    6.3301    4.0000    0.0000 C   0  0  0  0  0  0  0  0  0  0  0  0
    3.7320   -3.5000    0.0000 C   0  0  0  0  0  0  0  0  0  0  0  0
    5.4641    4.5000    0.0000 C   0  0  0  0  0  0  0  0  0  0  0  0
    2.0000   -3.5000    0.0000 C   0  0  0  0  0  0  0  0  0  0  0  0
    9.7942   -3.6200    0.0000 H   0  0  0  0  0  0  0  0  0  0  0  0
   10.4048   -2.1077    0.0000 H   0  0  0  0  0  0  0  0  0  0  0  0
   10.0063   -1.4174    0.0000 H   0  0  0  0  0  0  0  0  0  0  0  0
    8.5297   -3.9750    0.0000 H   0  0  0  0  0  0  0  0  0  0  0  0
    9.3267   -3.9750    0.0000 H   0  0  0  0  0  0  0  0  0  0  0  0
   11.5632   -1.8240    0.0000 H   0  0  0  0  0  0  0  0  0  0  0  0
   10.7163   -1.5970    0.0000 H   0  0  0  0  0  0  0  0  0  0  0  0
   10.4893   -2.4440    0.0000 H   0  0  0  0  0  0  0  0  0  0  0  0
   11.4893   -4.1760    0.0000 H   0  0  0  0  0  0  0  0  0  0  0  0
   12.3363   -4.4030    0.0000 H   0  0  0  0  0  0  0  0  0  0  0  0
   12.5632   -3.5560    0.0000 H   0  0  0  0  0  0  0  0  0  0  0  0
   13.5683   -2.5369    0.0000 H   0  0  0  0  0  0  0  0  0  0  0  0
   13.7953   -1.6900    0.0000 H   0  0  0  0  0  0  0  0  0  0  0  0
   12.9483   -1.4631    0.0000 H   0  0  0  0  0  0  0  0  0  0  0  0
   12.4292   -1.3240    0.0000 H   0  0  0  0  0  0  0  0  0  0  0  0
   11.5823   -1.0970    0.0000 H   0  0  0  0  0  0  0  0  0  0  0  0
   11.3554   -1.9440    0.0000 H   0  0  0  0  0  0  0  0  0  0  0  0
   12.3554   -3.6760    0.0000 H   0  0  0  0  0  0  0  0  0  0  0  0
   13.2023   -3.9030    0.0000 H   0  0  0  0  0  0  0  0  0  0  0  0
   13.4292   -3.0560    0.0000 H   0  0  0  0  0  0  0  0  0  0  0  0
    8.3176   -1.3923    0.0000 H   0  0  0  0  0  0  0  0  0  0  0  0
    8.7162   -2.0826    0.0000 H   0  0  0  0  0  0  0  0  0  0  0  0
    8.4607   -2.5250    0.0000 H   0  0  0  0  0  0  0  0  0  0  0  0
    7.6636   -2.5250    0.0000 H   0  0  0  0  0  0  0  0  0  0  0  0
    9.5388   -0.6077    0.0000 H   0  0  0  0  0  0  0  0  0  0  0  0
    9.1403    0.0826    0.0000 H   0  0  0  0  0  0  0  0  0  0  0  0
    6.7976   -3.9750    0.0000 H   0  0  0  0  0  0  0  0  0  0  0  0
    7.5947   -3.9750    0.0000 H   0  0  0  0  0  0  0  0  0  0  0  0
    7.4516    0.1077    0.0000 H   0  0  0  0  0  0  0  0  0  0  0  0
    7.8501   -0.5826    0.0000 H   0  0  0  0  0  0  0  0  0  0  0  0
    6.7287   -2.5250    0.0000 H   0  0  0  0  0  0  0  0  0  0  0  0
    5.9316   -2.5250    0.0000 H   0  0  0  0  0  0  0  0  0  0  0  0
    8.6728    0.8923    0.0000 H   0  0  0  0  0  0  0  0  0  0  0  0
    8.2742    1.5826    0.0000 H   0  0  0  0  0  0  0  0  0  0  0  0
    6.5856    1.6077    0.0000 H   0  0  0  0  0  0  0  0  0  0  0  0
    6.9841    0.9174    0.0000 H   0  0  0  0  0  0  0  0  0  0  0  0
    5.0656   -3.9750    0.0000 H   0  0  0  0  0  0  0  0  0  0  0  0
    5.8626   -3.9750    0.0000 H   0  0  0  0  0  0  0  0  0  0  0  0
    7.8067    2.3923    0.0000 H   0  0  0  0  0  0  0  0  0  0  0  0
    7.4082    3.0826    0.0000 H   0  0  0  0  0  0  0  0  0  0  0  0
    5.7196    3.1077    0.0000 H   0  0  0  0  0  0  0  0  0  0  0  0
    6.1181    2.4174    0.0000 H   0  0  0  0  0  0  0  0  0  0  0  0
    4.9966   -2.5250    0.0000 H   0  0  0  0  0  0  0  0  0  0  0  0
    4.1996   -2.5250    0.0000 H   0  0  0  0  0  0  0  0  0  0  0  0
    6.9407    3.8923    0.0000 H   0  0  0  0  0  0  0  0  0  0  0  0
    6.5422    4.5826    0.0000 H   0  0  0  0  0  0  0  0  0  0  0  0
    5.7741    5.0369    0.0000 H   0  0  0  0  0  0  0  0  0  0  0  0
    4.9272    4.8100    0.0000 H   0  0  0  0  0  0  0  0  0  0  0  0
    5.1541    3.9631    0.0000 H   0  0  0  0  0  0  0  0  0  0  0  0
    1.6900   -2.9631    0.0000 H   0  0  0  0  0  0  0  0  0  0  0  0
    1.4631   -3.8100    0.0000 H   0  0  0  0  0  0  0  0  0  0  0  0
    2.3100   -4.0369    0.0000 H   0  0  0  0  0  0  0  0  0  0  0  0
  1  2  1  0  0  0  0
  1  5  1  0  0  0  0
  1  9  1  0  0  0  0
  1 10  1  0  0  0  0
  2  6  1  0  0  0  0
  3 27  1  0  0  0  0
  3 29  1  0  0  0  0
  4 27  2  0  0  0  0
  5 11  1  0  0  0  0
  5 12  1  0  0  0  0
  5 13  1  0  0  0  0
  6  7  1  0  0  0  0
  6  8  1  0  0  0  0
  6 30  1  0  0  0  0
  7 14  1  0  0  0  0
  7 31  1  0  0  0  0
  7 32  1  0  0  0  0
  8 15  1  0  0  0  0
  8 33  1  0  0  0  0
  8 34  1  0  0  0  0
  9 35  1  0  0  0  0
  9 36  1  0  0  0  0
  9 37  1  0  0  0  0
 10 38  1  0  0  0  0
 10 39  1  0  0  0  0
 10 40  1  0  0  0  0
 11 41  1  0  0  0  0
 11 42  1  0  0  0  0
 11 43  1  0  0  0  0
 12 44  1  0  0  0  0
 12 45  1  0  0  0  0
 12 46  1  0  0  0  0
 13 47  1  0  0  0  0
 13 48  1  0  0  0  0
 13 49  1  0  0  0  0
 14 16  1  0  0  0  0
 14 50  1  0  0  0  0
 14 51  1  0  0  0  0
 15 17  1  0  0  0  0
 15 52  1  0  0  0  0
 15 53  1  0  0  0  0
 16 18  1  0  0  0  0
 16 54  1  0  0  0  0
 16 55  1  0  0  0  0
 17 19  1  0  0  0  0
 17 56  1  0  0  0  0
 17 57  1  0  0  0  0
 18 20  1  0  0  0  0
 18 58  1  0  0  0  0
 18 59  1  0  0  0  0
 19 22  1  0  0  0  0
 19 60  1  0  0  0  0
 19 61  1  0  0  0  0
 20 21  1  0  0  0  0
 20 62  1  0  0  0  0
 20 63  1  0  0  0  0
 21 23  1  0  0  0  0
 21 64  1  0  0  0  0
 21 65  1  0  0  0  0
 22 25  1  0  0  0  0
 22 66  1  0  0  0  0
 22 67  1  0  0  0  0
 23 24  1  0  0  0  0
 23 68  1  0  0  0  0
 23 69  1  0  0  0  0
 24 26  1  0  0  0  0
 24 70  1  0  0  0  0
 24 71  1  0  0  0  0
 25 27  1  0  0  0  0
 25 72  1  0  0  0  0
 25 73  1  0  0  0  0
 26 28  1  0  0  0  0
 26 74  1  0  0  0  0
 26 75  1  0  0  0  0
 28 76  1  0  0  0  0
 28 77  1  0  0  0  0
 28 78  1  0  0  0  0
 29 79  1  0  0  0  0
 29 80  1  0  0  0  0
 29 81  1  0  0  0  0
M  END
> <PUBCHEM_COMPOUND_CID>
526779
> <PUBCHEM_COMPOUND_CANONICALIZED>
1
> <PUBCHEM_CACTVS_COMPLEXITY>
401
> <PUBCHEM_CACTVS_HBOND_ACCEPTOR>
3
> <PUBCHEM_CACTVS_HBOND_DONOR>
0
> <PUBCHEM_CACTVS_ROTATABLE_BOND>
20
> <PUBCHEM_CACTVS_SUBSKEYS>
AAADcfB4MAgAAAAAAAAAAAAAAAAAAAAAAAAAAAAAAAAAAAAAAAAAGhAAAEAADBSgoAJCCAAABAEIAACQCAAAAAAAAAAAAAEAAAAAABIAAAAAAAAEAAAAAAGIyKCAAAAAAAAAAAAAAAAAAAAAAAAAAAAAAA==
> <PUBCHEM_IUPAC_OPENEYE_NAME>
methyl 8-[tert-butyl(dimethyl)silyl]oxyoctadecanoate
> <PUBCHEM_IUPAC_CAS_NAME>
8-[tert-butyl(dimethyl)silyl]oxyoctadecanoic acid methyl ester
> <PUBCHEM_IUPAC_NAME_MARKUP>
methyl 8-[<I>tert</I>-butyl(dimethyl)silyl]oxyoctadecanoate
> <PUBCHEM_IUPAC_NAME>
methyl 8-[tert-butyl(dimethyl)silyl]oxyoctadecanoate
> <PUBCHEM_IUPAC_SYSTEMATIC_NAME>
methyl 8-[tert-butyl(dimethyl)silyl]oxyoctadecanoate
> <PUBCHEM_IUPAC_TRADITIONAL_NAME>
8-[tert-butyl(dimethyl)silyl]oxystearic acid methyl ester
> <PUBCHEM_IUPAC_INCHI>
InChI=1S/C25H52O3Si/c1-8-9-10-11-12-13-14-17-20-23(28-29(6,7)25(2,3)4)21-18-15-16-19-22-24(26)27-5/h23H,8-22H2,1-7H3
> <PUBCHEM_IUPAC_INCHIKEY>
AUTIPGBUDPFQPG-UHFFFAOYSA-N
> <PUBCHEM_EXACT_MASS>
428.36857205
> <PUBCHEM_MOLECULAR_FORMULA>
C25H52O3Si
> <PUBCHEM_MOLECULAR_WEIGHT>
428.8
> <PUBCHEM_OPENEYE_CAN_SMILES>
CCCCCCCCCCC(CCCCCCC(=O)OC)O[Si](C)(C)C(C)(C)C
> <PUBCHEM_OPENEYE_ISO_SMILES>
CCCCCCCCCCC(CCCCCCC(=O)OC)O[Si](C)(C)C(C)(C)C
> <PUBCHEM_CACTVS_TPSA>
35.5
> <PUBCHEM_MONOISOTOPIC_WEIGHT>
428.36857205
> <PUBCHEM_TOTAL_CHARGE>
0
> <PUBCHEM_HEAVY_ATOM_COUNT>
29
> <PUBCHEM_ATOM_DEF_STEREO_COUNT>
0
> <PUBCHEM_ATOM_UDEF_STEREO_COUNT>
1
> <PUBCHEM_BOND_DEF_STEREO_COUNT>
0
> <PUBCHEM_BOND_UDEF_STEREO_COUNT>
0
> <PUBCHEM_ISOTOPIC_ATOM_COUNT>
0
> <PUBCHEM_COMPONENT_COUNT>
1
> <PUBCHEM_CACTVS_TAUTO_COUNT>
-1
> <PUBCHEM_COORDINATE_TYPE>
1
5
255
> <PUBCHEM_BONDANNOTATIONS>
6  7  3
$$$$
