526774
  -OEChem-10302200292D
 81 80  0     1  0  0  0  0  0999 V2000
   12.3923   -3.0670    0.0000 Si  0  0  0  0  0  0  0  0  0  0  0  0
   11.5263   -3.5670    0.0000 O   0  0  0  0  0  0  0  0  0  0  0  0
    2.8660   -3.5670    0.0000 O   0  0  0  0  0  0  0  0  0  0  0  0
    3.7320   -2.0670    0.0000 O   0  0  0  0  0  0  0  0  0  0  0  0
   13.2583   -2.5670    0.0000 C   0  0  0  0  0  0  0  0  0  0  0  0
   10.6603   -3.0670    0.0000 C   0  0  3  0  0  0  0  0  0  0  0  0
   10.6603   -2.0670    0.0000 C   0  0  0  0  0  0  0  0  0  0  0  0
    9.7942   -3.5670    0.0000 C   0  0  0  0  0  0  0  0  0  0  0  0
   11.8923   -2.2010    0.0000 C   0  0  0  0  0  0  0  0  0  0  0  0
   12.8923   -3.9330    0.0000 C   0  0  0  0  0  0  0  0  0  0  0  0
   14.1244   -2.0670    0.0000 C   0  0  0  0  0  0  0  0  0  0  0  0
   12.7583   -1.7010    0.0000 C   0  0  0  0  0  0  0  0  0  0  0  0
   13.7583   -3.4330    0.0000 C   0  0  0  0  0  0  0  0  0  0  0  0
    9.7942   -1.5670    0.0000 C   0  0  0  0  0  0  0  0  0  0  0  0
    8.9282   -3.0670    0.0000 C   0  0  0  0  0  0  0  0  0  0  0  0
    9.7942   -0.5670    0.0000 C   0  0  0  0  0  0  0  0  0  0  0  0
    8.0622   -3.5670    0.0000 C   0  0  0  0  0  0  0  0  0  0  0  0
    8.9282   -0.0670    0.0000 C   0  0  0  0  0  0  0  0  0  0  0  0
    7.1962   -3.0670    0.0000 C   0  0  0  0  0  0  0  0  0  0  0  0
    8.9282    0.9330    0.0000 C   0  0  0  0  0  0  0  0  0  0  0  0
    6.3301   -3.5670    0.0000 C   0  0  0  0  0  0  0  0  0  0  0  0
    8.0622    1.4330    0.0000 C   0  0  0  0  0  0  0  0  0  0  0  0
    5.4641   -3.0670    0.0000 C   0  0  0  0  0  0  0  0  0  0  0  0
    8.0622    2.4330    0.0000 C   0  0  0  0  0  0  0  0  0  0  0  0
    4.5981   -3.5670    0.0000 C   0  0  0  0  0  0  0  0  0  0  0  0
    7.1962    2.9330    0.0000 C   0  0  0  0  0  0  0  0  0  0  0  0
    7.1962    3.9330    0.0000 C   0  0  0  0  0  0  0  0  0  0  0  0
    3.7320   -3.0670    0.0000 C   0  0  0  0  0  0  0  0  0  0  0  0
    2.0000   -3.0670    0.0000 C   0  0  0  0  0  0  0  0  0  0  0  0
   11.1972   -2.7570    0.0000 H   0  0  0  0  0  0  0  0  0  0  0  0
   11.2708   -2.1747    0.0000 H   0  0  0  0  0  0  0  0  0  0  0  0
   10.8723   -1.4844    0.0000 H   0  0  0  0  0  0  0  0  0  0  0  0
    9.3957   -4.0419    0.0000 H   0  0  0  0  0  0  0  0  0  0  0  0
   10.1928   -4.0419    0.0000 H   0  0  0  0  0  0  0  0  0  0  0  0
   12.4292   -1.8910    0.0000 H   0  0  0  0  0  0  0  0  0  0  0  0
   11.5823   -1.6640    0.0000 H   0  0  0  0  0  0  0  0  0  0  0  0
   11.3554   -2.5110    0.0000 H   0  0  0  0  0  0  0  0  0  0  0  0
   12.3554   -4.2430    0.0000 H   0  0  0  0  0  0  0  0  0  0  0  0
   13.2023   -4.4700    0.0000 H   0  0  0  0  0  0  0  0  0  0  0  0
   13.4292   -3.6230    0.0000 H   0  0  0  0  0  0  0  0  0  0  0  0
   14.4344   -2.6039    0.0000 H   0  0  0  0  0  0  0  0  0  0  0  0
   14.6613   -1.7570    0.0000 H   0  0  0  0  0  0  0  0  0  0  0  0
   13.8144   -1.5300    0.0000 H   0  0  0  0  0  0  0  0  0  0  0  0
   13.2953   -1.3910    0.0000 H   0  0  0  0  0  0  0  0  0  0  0  0
   12.4483   -1.1640    0.0000 H   0  0  0  0  0  0  0  0  0  0  0  0
   12.2214   -2.0110    0.0000 H   0  0  0  0  0  0  0  0  0  0  0  0
   13.2214   -3.7430    0.0000 H   0  0  0  0  0  0  0  0  0  0  0  0
   14.0683   -3.9700    0.0000 H   0  0  0  0  0  0  0  0  0  0  0  0
   14.2953   -3.1230    0.0000 H   0  0  0  0  0  0  0  0  0  0  0  0
    9.1836   -1.4593    0.0000 H   0  0  0  0  0  0  0  0  0  0  0  0
    9.5822   -2.1496    0.0000 H   0  0  0  0  0  0  0  0  0  0  0  0
    9.3267   -2.5920    0.0000 H   0  0  0  0  0  0  0  0  0  0  0  0
    8.5297   -2.5920    0.0000 H   0  0  0  0  0  0  0  0  0  0  0  0
   10.4048   -0.6746    0.0000 H   0  0  0  0  0  0  0  0  0  0  0  0
   10.0063    0.0156    0.0000 H   0  0  0  0  0  0  0  0  0  0  0  0
    7.6636   -4.0419    0.0000 H   0  0  0  0  0  0  0  0  0  0  0  0
    8.4607   -4.0419    0.0000 H   0  0  0  0  0  0  0  0  0  0  0  0
    8.3176    0.0407    0.0000 H   0  0  0  0  0  0  0  0  0  0  0  0
    8.7162   -0.6496    0.0000 H   0  0  0  0  0  0  0  0  0  0  0  0
    7.5947   -2.5920    0.0000 H   0  0  0  0  0  0  0  0  0  0  0  0
    6.7976   -2.5920    0.0000 H   0  0  0  0  0  0  0  0  0  0  0  0
    9.5388    0.8254    0.0000 H   0  0  0  0  0  0  0  0  0  0  0  0
    9.1403    1.5156    0.0000 H   0  0  0  0  0  0  0  0  0  0  0  0
    5.9316   -4.0419    0.0000 H   0  0  0  0  0  0  0  0  0  0  0  0
    6.7287   -4.0419    0.0000 H   0  0  0  0  0  0  0  0  0  0  0  0
    7.4516    1.5407    0.0000 H   0  0  0  0  0  0  0  0  0  0  0  0
    7.8501    0.8504    0.0000 H   0  0  0  0  0  0  0  0  0  0  0  0
    5.8626   -2.5920    0.0000 H   0  0  0  0  0  0  0  0  0  0  0  0
    5.0656   -2.5920    0.0000 H   0  0  0  0  0  0  0  0  0  0  0  0
    8.6728    2.3253    0.0000 H   0  0  0  0  0  0  0  0  0  0  0  0
    8.2742    3.0156    0.0000 H   0  0  0  0  0  0  0  0  0  0  0  0
    4.1996   -4.0419    0.0000 H   0  0  0  0  0  0  0  0  0  0  0  0
    4.9966   -4.0419    0.0000 H   0  0  0  0  0  0  0  0  0  0  0  0
    6.5856    3.0407    0.0000 H   0  0  0  0  0  0  0  0  0  0  0  0
    6.9841    2.3504    0.0000 H   0  0  0  0  0  0  0  0  0  0  0  0
    7.8162    3.9330    0.0000 H   0  0  0  0  0  0  0  0  0  0  0  0
    7.1962    4.5530    0.0000 H   0  0  0  0  0  0  0  0  0  0  0  0
    6.5762    3.9330    0.0000 H   0  0  0  0  0  0  0  0  0  0  0  0
    2.3100   -2.5300    0.0000 H   0  0  0  0  0  0  0  0  0  0  0  0
    1.4631   -2.7570    0.0000 H   0  0  0  0  0  0  0  0  0  0  0  0
    1.6900   -3.6039    0.0000 H   0  0  0  0  0  0  0  0  0  0  0  0
  1  2  1  0  0  0  0
  1  5  1  0  0  0  0
  1  9  1  0  0  0  0
  1 10  1  0  0  0  0
  2  6  1  0  0  0  0
  3 28  1  0  0  0  0
  3 29  1  0  0  0  0
  4 28  2  0  0  0  0
  5 11  1  0  0  0  0
  5 12  1  0  0  0  0
  5 13  1  0  0  0  0
  6  7  1  0  0  0  0
  6  8  1  0  0  0  0
  6 30  1  0  0  0  0
  7 14  1  0  0  0  0
  7 31  1  0  0  0  0
  7 32  1  0  0  0  0
  8 15  1  0  0  0  0
  8 33  1  0  0  0  0
  8 34  1  0  0  0  0
  9 35  1  0  0  0  0
  9 36  1  0  0  0  0
  9 37  1  0  0  0  0
 10 38  1  0  0  0  0
 10 39  1  0  0  0  0
 10 40  1  0  0  0  0
 11 41  1  0  0  0  0
 11 42  1  0  0  0  0
 11 43  1  0  0  0  0
 12 44  1  0  0  0  0
 12 45  1  0  0  0  0
 12 46  1  0  0  0  0
 13 47  1  0  0  0  0
 13 48  1  0  0  0  0
 13 49  1  0  0  0  0
 14 16  1  0  0  0  0
 14 50  1  0  0  0  0
 14 51  1  0  0  0  0
 15 17  1  0  0  0  0
 15 52  1  0  0  0  0
 15 53  1  0  0  0  0
 16 18  1  0  0  0  0
 16 54  1  0  0  0  0
 16 55  1  0  0  0  0
 17 19  1  0  0  0  0
 17 56  1  0  0  0  0
 17 57  1  0  0  0  0
 18 20  1  0  0  0  0
 18 58  1  0  0  0  0
 18 59  1  0  0  0  0
 19 21  1  0  0  0  0
 19 60  1  0  0  0  0
 19 61  1  0  0  0  0
 20 22  1  0  0  0  0
 20 62  1  0  0  0  0
 20 63  1  0  0  0  0
 21 23  1  0  0  0  0
 21 64  1  0  0  0  0
 21 65  1  0  0  0  0
 22 24  1  0  0  0  0
 22 66  1  0  0  0  0
 22 67  1  0  0  0  0
 23 25  1  0  0  0  0
 23 68  1  0  0  0  0
 23 69  1  0  0  0  0
 24 26  1  0  0  0  0
 24 70  1  0  0  0  0
 24 71  1  0  0  0  0
 25 28  1  0  0  0  0
 25 72  1  0  0  0  0
 25 73  1  0  0  0  0
 26 27  1  0  0  0  0
 26 74  1  0  0  0  0
 26 75  1  0  0  0  0
 27 76  1  0  0  0  0
 27 77  1  0  0  0  0
 27 78  1  0  0  0  0
 29 79  1  0  0  0  0
 29 80  1  0  0  0  0
 29 81  1  0  0  0  0
M  END
> <PUBCHEM_COMPOUND_CID>
526774
> <PUBCHEM_COMPOUND_CANONICALIZED>
1
> <PUBCHEM_CACTVS_COMPLEXITY>
401
> <PUBCHEM_CACTVS_HBOND_ACCEPTOR>
3
> <PUBCHEM_CACTVS_HBOND_DONOR>
0
> <PUBCHEM_CACTVS_ROTATABLE_BOND>
20
> <PUBCHEM_CACTVS_SUBSKEYS>
AAADcfB4MAgAAAAAAAAAAAAAAAAAAAAAAAAAAAAAAAAAAAAAAAAAGhAAAEAADBSgoAJCCAAABAEIAACQCAAAAAAAAAAAAAEAAAAAABIAAAAAAAAEAAAAAAGIyKCAAAAAAAAAAAAAAAAAAAAAAAAAAAAAAA==
> <PUBCHEM_IUPAC_OPENEYE_NAME>
methyl 9-[tert-butyl(dimethyl)silyl]oxyoctadecanoate
> <PUBCHEM_IUPAC_CAS_NAME>
9-[tert-butyl(dimethyl)silyl]oxyoctadecanoic acid methyl ester
> <PUBCHEM_IUPAC_NAME_MARKUP>
methyl 9-[<I>tert</I>-butyl(dimethyl)silyl]oxyoctadecanoate
> <PUBCHEM_IUPAC_NAME>
methyl 9-[tert-butyl(dimethyl)silyl]oxyoctadecanoate
> <PUBCHEM_IUPAC_SYSTEMATIC_NAME>
methyl 9-[tert-butyl(dimethyl)silyl]oxyoctadecanoate
> <PUBCHEM_IUPAC_TRADITIONAL_NAME>
9-[tert-butyl(dimethyl)silyl]oxystearic acid methyl ester
> <PUBCHEM_IUPAC_INCHI>
InChI=1S/C25H52O3Si/c1-8-9-10-11-12-14-17-20-23(28-29(6,7)25(2,3)4)21-18-15-13-16-19-22-24(26)27-5/h23H,8-22H2,1-7H3
> <PUBCHEM_IUPAC_INCHIKEY>
ONGADZBOOWEJER-UHFFFAOYSA-N
> <PUBCHEM_EXACT_MASS>
428.36857205
> <PUBCHEM_MOLECULAR_FORMULA>
C25H52O3Si
> <PUBCHEM_MOLECULAR_WEIGHT>
428.8
> <PUBCHEM_OPENEYE_CAN_SMILES>
CCCCCCCCCC(CCCCCCCC(=O)OC)O[Si](C)(C)C(C)(C)C
> <PUBCHEM_OPENEYE_ISO_SMILES>
CCCCCCCCCC(CCCCCCCC(=O)OC)O[Si](C)(C)C(C)(C)C
> <PUBCHEM_CACTVS_TPSA>
35.5
> <PUBCHEM_MONOISOTOPIC_WEIGHT>
428.36857205
> <PUBCHEM_TOTAL_CHARGE>
0
> <PUBCHEM_HEAVY_ATOM_COUNT>
29
> <PUBCHEM_ATOM_DEF_STEREO_COUNT>
0
> <PUBCHEM_ATOM_UDEF_STEREO_COUNT>
1
> <PUBCHEM_BOND_DEF_STEREO_COUNT>
0
> <PUBCHEM_BOND_UDEF_STEREO_COUNT>
0
> <PUBCHEM_ISOTOPIC_ATOM_COUNT>
0
> <PUBCHEM_COMPONENT_COUNT>
1
> <PUBCHEM_CACTVS_TAUTO_COUNT>
-1
> <PUBCHEM_COORDINATE_TYPE>
1
5
255
> <PUBCHEM_BONDANNOTATIONS>
6  7  3
$$$$
