526789
  -OEChem-10302200292D
 84 83  0     1  0  0  0  0  0999 V2000
    9.7942   -4.2500    0.0000 Si  0  0  0  0  0  0  0  0  0  0  0  0
    8.9282   -4.7500    0.0000 O   0  0  0  0  0  0  0  0  0  0  0  0
    2.8660   -4.2500    0.0000 O   0  0  0  0  0  0  0  0  0  0  0  0
    3.7320   -5.7500    0.0000 O   0  0  0  0  0  0  0  0  0  0  0  0
   10.6603   -3.7500    0.0000 C   0  0  0  0  0  0  0  0  0  0  0  0
    8.0622   -4.2500    0.0000 C   0  0  3  0  0  0  0  0  0  0  0  0
    8.0622   -3.2500    0.0000 C   0  0  0  0  0  0  0  0  0  0  0  0
    9.2942   -3.3840    0.0000 C   0  0  0  0  0  0  0  0  0  0  0  0
   10.2942   -5.1160    0.0000 C   0  0  0  0  0  0  0  0  0  0  0  0
   11.5263   -3.2500    0.0000 C   0  0  0  0  0  0  0  0  0  0  0  0
   10.1603   -2.8840    0.0000 C   0  0  0  0  0  0  0  0  0  0  0  0
   11.1603   -4.6160    0.0000 C   0  0  0  0  0  0  0  0  0  0  0  0
    7.1962   -4.7500    0.0000 C   0  0  0  0  0  0  0  0  0  0  0  0
    7.1962   -2.7500    0.0000 C   0  0  0  0  0  0  0  0  0  0  0  0
    6.3301   -4.2500    0.0000 C   0  0  0  0  0  0  0  0  0  0  0  0
    7.1962   -1.7500    0.0000 C   0  0  0  0  0  0  0  0  0  0  0  0
    6.3301   -1.2500    0.0000 C   0  0  0  0  0  0  0  0  0  0  0  0
    5.4641   -4.7500    0.0000 C   0  0  0  0  0  0  0  0  0  0  0  0
    6.3301   -0.2500    0.0000 C   0  0  0  0  0  0  0  0  0  0  0  0
    5.4641    0.2500    0.0000 C   0  0  0  0  0  0  0  0  0  0  0  0
    5.4641    1.2500    0.0000 C   0  0  0  0  0  0  0  0  0  0  0  0
    4.5981   -4.2500    0.0000 C   0  0  0  0  0  0  0  0  0  0  0  0
    4.5981    1.7500    0.0000 C   0  0  0  0  0  0  0  0  0  0  0  0
    4.5981    2.7500    0.0000 C   0  0  0  0  0  0  0  0  0  0  0  0
    3.7320    3.2500    0.0000 C   0  0  0  0  0  0  0  0  0  0  0  0
    3.7320    4.2500    0.0000 C   0  0  0  0  0  0  0  0  0  0  0  0
    3.7320   -4.7500    0.0000 C   0  0  0  0  0  0  0  0  0  0  0  0
    2.8660    4.7500    0.0000 C   0  0  0  0  0  0  0  0  0  0  0  0
    2.8660    5.7500    0.0000 C   0  0  0  0  0  0  0  0  0  0  0  0
    2.0000   -4.7500    0.0000 C   0  0  0  0  0  0  0  0  0  0  0  0
    8.0622   -4.8700    0.0000 H   0  0  0  0  0  0  0  0  0  0  0  0
    8.6728   -3.3577    0.0000 H   0  0  0  0  0  0  0  0  0  0  0  0
    8.2742   -2.6674    0.0000 H   0  0  0  0  0  0  0  0  0  0  0  0
    9.8312   -3.0740    0.0000 H   0  0  0  0  0  0  0  0  0  0  0  0
    8.9842   -2.8470    0.0000 H   0  0  0  0  0  0  0  0  0  0  0  0
    8.7573   -3.6940    0.0000 H   0  0  0  0  0  0  0  0  0  0  0  0
    9.7573   -5.4260    0.0000 H   0  0  0  0  0  0  0  0  0  0  0  0
   10.6042   -5.6530    0.0000 H   0  0  0  0  0  0  0  0  0  0  0  0
   10.8312   -4.8060    0.0000 H   0  0  0  0  0  0  0  0  0  0  0  0
   11.8363   -3.7869    0.0000 H   0  0  0  0  0  0  0  0  0  0  0  0
   12.0632   -2.9400    0.0000 H   0  0  0  0  0  0  0  0  0  0  0  0
   11.2163   -2.7131    0.0000 H   0  0  0  0  0  0  0  0  0  0  0  0
   10.6972   -2.5740    0.0000 H   0  0  0  0  0  0  0  0  0  0  0  0
    9.8503   -2.3470    0.0000 H   0  0  0  0  0  0  0  0  0  0  0  0
    9.6233   -3.1940    0.0000 H   0  0  0  0  0  0  0  0  0  0  0  0
   10.6233   -4.9260    0.0000 H   0  0  0  0  0  0  0  0  0  0  0  0
   11.4703   -5.1530    0.0000 H   0  0  0  0  0  0  0  0  0  0  0  0
   11.6972   -4.3060    0.0000 H   0  0  0  0  0  0  0  0  0  0  0  0
    6.7976   -5.2250    0.0000 H   0  0  0  0  0  0  0  0  0  0  0  0
    7.5947   -5.2250    0.0000 H   0  0  0  0  0  0  0  0  0  0  0  0
    6.5856   -2.6423    0.0000 H   0  0  0  0  0  0  0  0  0  0  0  0
    6.9841   -3.3326    0.0000 H   0  0  0  0  0  0  0  0  0  0  0  0
    6.7287   -3.7750    0.0000 H   0  0  0  0  0  0  0  0  0  0  0  0
    5.9316   -3.7750    0.0000 H   0  0  0  0  0  0  0  0  0  0  0  0
    7.8067   -1.8577    0.0000 H   0  0  0  0  0  0  0  0  0  0  0  0
    7.4082   -1.1674    0.0000 H   0  0  0  0  0  0  0  0  0  0  0  0
    5.7196   -1.1423    0.0000 H   0  0  0  0  0  0  0  0  0  0  0  0
    6.1181   -1.8326    0.0000 H   0  0  0  0  0  0  0  0  0  0  0  0
    5.0656   -5.2250    0.0000 H   0  0  0  0  0  0  0  0  0  0  0  0
    5.8626   -5.2250    0.0000 H   0  0  0  0  0  0  0  0  0  0  0  0
    6.9407   -0.3577    0.0000 H   0  0  0  0  0  0  0  0  0  0  0  0
    6.5422    0.3326    0.0000 H   0  0  0  0  0  0  0  0  0  0  0  0
    4.8535    0.3577    0.0000 H   0  0  0  0  0  0  0  0  0  0  0  0
    5.2520   -0.3326    0.0000 H   0  0  0  0  0  0  0  0  0  0  0  0
    6.0747    1.1423    0.0000 H   0  0  0  0  0  0  0  0  0  0  0  0
    5.6762    1.8326    0.0000 H   0  0  0  0  0  0  0  0  0  0  0  0
    4.9966   -3.7750    0.0000 H   0  0  0  0  0  0  0  0  0  0  0  0
    4.1996   -3.7750    0.0000 H   0  0  0  0  0  0  0  0  0  0  0  0
    3.9875    1.8577    0.0000 H   0  0  0  0  0  0  0  0  0  0  0  0
    4.3860    1.1674    0.0000 H   0  0  0  0  0  0  0  0  0  0  0  0
    5.2087    2.6423    0.0000 H   0  0  0  0  0  0  0  0  0  0  0  0
    4.8101    3.3326    0.0000 H   0  0  0  0  0  0  0  0  0  0  0  0
    3.1215    3.3577    0.0000 H   0  0  0  0  0  0  0  0  0  0  0  0
    3.5200    2.6674    0.0000 H   0  0  0  0  0  0  0  0  0  0  0  0
    4.3426    4.1423    0.0000 H   0  0  0  0  0  0  0  0  0  0  0  0
    3.9441    4.8326    0.0000 H   0  0  0  0  0  0  0  0  0  0  0  0
    2.2554    4.8577    0.0000 H   0  0  0  0  0  0  0  0  0  0  0  0
    2.6540    4.1674    0.0000 H   0  0  0  0  0  0  0  0  0  0  0  0
    3.4860    5.7500    0.0000 H   0  0  0  0  0  0  0  0  0  0  0  0
    2.8660    6.3700    0.0000 H   0  0  0  0  0  0  0  0  0  0  0  0
    2.2460    5.7500    0.0000 H   0  0  0  0  0  0  0  0  0  0  0  0
    1.6900   -4.2131    0.0000 H   0  0  0  0  0  0  0  0  0  0  0  0
    1.4631   -5.0600    0.0000 H   0  0  0  0  0  0  0  0  0  0  0  0
    2.3100   -5.2869    0.0000 H   0  0  0  0  0  0  0  0  0  0  0  0
  1  2  1  0  0  0  0
  1  5  1  0  0  0  0
  1  8  1  0  0  0  0
  1  9  1  0  0  0  0
  2  6  1  0  0  0  0
  3 27  1  0  0  0  0
  3 30  1  0  0  0  0
  4 27  2  0  0  0  0
  5 10  1  0  0  0  0
  5 11  1  0  0  0  0
  5 12  1  0  0  0  0
  6  7  1  0  0  0  0
  6 13  1  0  0  0  0
  6 31  1  0  0  0  0
  7 14  1  0  0  0  0
  7 32  1  0  0  0  0
  7 33  1  0  0  0  0
  8 34  1  0  0  0  0
  8 35  1  0  0  0  0
  8 36  1  0  0  0  0
  9 37  1  0  0  0  0
  9 38  1  0  0  0  0
  9 39  1  0  0  0  0
 10 40  1  0  0  0  0
 10 41  1  0  0  0  0
 10 42  1  0  0  0  0
 11 43  1  0  0  0  0
 11 44  1  0  0  0  0
 11 45  1  0  0  0  0
 12 46  1  0  0  0  0
 12 47  1  0  0  0  0
 12 48  1  0  0  0  0
 13 15  1  0  0  0  0
 13 49  1  0  0  0  0
 13 50  1  0  0  0  0
 14 16  1  0  0  0  0
 14 51  1  0  0  0  0
 14 52  1  0  0  0  0
 15 18  1  0  0  0  0
 15 53  1  0  0  0  0
 15 54  1  0  0  0  0
 16 17  1  0  0  0  0
 16 55  1  0  0  0  0
 16 56  1  0  0  0  0
 17 19  1  0  0  0  0
 17 57  1  0  0  0  0
 17 58  1  0  0  0  0
 18 22  1  0  0  0  0
 18 59  1  0  0  0  0
 18 60  1  0  0  0  0
 19 20  1  0  0  0  0
 19 61  1  0  0  0  0
 19 62  1  0  0  0  0
 20 21  1  0  0  0  0
 20 63  1  0  0  0  0
 20 64  1  0  0  0  0
 21 23  1  0  0  0  0
 21 65  1  0  0  0  0
 21 66  1  0  0  0  0
 22 27  1  0  0  0  0
 22 67  1  0  0  0  0
 22 68  1  0  0  0  0
 23 24  1  0  0  0  0
 23 69  1  0  0  0  0
 23 70  1  0  0  0  0
 24 25  1  0  0  0  0
 24 71  1  0  0  0  0
 24 72  1  0  0  0  0
 25 26  1  0  0  0  0
 25 73  1  0  0  0  0
 25 74  1  0  0  0  0
 26 28  1  0  0  0  0
 26 75  1  0  0  0  0
 26 76  1  0  0  0  0
 28 29  1  0  0  0  0
 28 77  1  0  0  0  0
 28 78  1  0  0  0  0
 29 79  1  0  0  0  0
 29 80  1  0  0  0  0
 29 81  1  0  0  0  0
 30 82  1  0  0  0  0
 30 83  1  0  0  0  0
 30 84  1  0  0  0  0
M  END
> <PUBCHEM_COMPOUND_CID>
526789
> <PUBCHEM_COMPOUND_CANONICALIZED>
1
> <PUBCHEM_CACTVS_COMPLEXITY>
415
> <PUBCHEM_CACTVS_HBOND_ACCEPTOR>
3
> <PUBCHEM_CACTVS_HBOND_DONOR>
0
> <PUBCHEM_CACTVS_ROTATABLE_BOND>
21
> <PUBCHEM_CACTVS_SUBSKEYS>
AAADcfB4MAgAAAAAAAAAAAAAAAAAAAAAAAAAAAAAAAAAAAAAAAAAGhAAAEAADBSgoAJCCAAABAEIAACQCAAAAAAAAAAAAAEAAAAAABIAAAAAAAAEAAAAAAGIyKCAAAAAAAAAAAAAAAAAAAAAAAAAAAAAAA==
> <PUBCHEM_IUPAC_OPENEYE_NAME>
methyl 6-[tert-butyl(dimethyl)silyl]oxynonadecanoate
> <PUBCHEM_IUPAC_CAS_NAME>
6-[tert-butyl(dimethyl)silyl]oxynonadecanoic acid methyl ester
> <PUBCHEM_IUPAC_NAME_MARKUP>
methyl 6-[<I>tert</I>-butyl(dimethyl)silyl]oxynonadecanoate
> <PUBCHEM_IUPAC_NAME>
methyl 6-[tert-butyl(dimethyl)silyl]oxynonadecanoate
> <PUBCHEM_IUPAC_SYSTEMATIC_NAME>
methyl 6-[tert-butyl(dimethyl)silyl]oxynonadecanoate
> <PUBCHEM_IUPAC_TRADITIONAL_NAME>
6-[tert-butyl(dimethyl)silyl]oxynonadecanoic acid methyl ester
> <PUBCHEM_IUPAC_INCHI>
InChI=1S/C26H54O3Si/c1-8-9-10-11-12-13-14-15-16-17-18-21-24(22-19-20-23-25(27)28-5)29-30(6,7)26(2,3)4/h24H,8-23H2,1-7H3
> <PUBCHEM_IUPAC_INCHIKEY>
WSDRNCBTSUBZOH-UHFFFAOYSA-N
> <PUBCHEM_EXACT_MASS>
442.38422211
> <PUBCHEM_MOLECULAR_FORMULA>
C26H54O3Si
> <PUBCHEM_MOLECULAR_WEIGHT>
442.8
> <PUBCHEM_OPENEYE_CAN_SMILES>
CCCCCCCCCCCCCC(CCCCC(=O)OC)O[Si](C)(C)C(C)(C)C
> <PUBCHEM_OPENEYE_ISO_SMILES>
CCCCCCCCCCCCCC(CCCCC(=O)OC)O[Si](C)(C)C(C)(C)C
> <PUBCHEM_CACTVS_TPSA>
35.5
> <PUBCHEM_MONOISOTOPIC_WEIGHT>
442.38422211
> <PUBCHEM_TOTAL_CHARGE>
0
> <PUBCHEM_HEAVY_ATOM_COUNT>
30
> <PUBCHEM_ATOM_DEF_STEREO_COUNT>
0
> <PUBCHEM_ATOM_UDEF_STEREO_COUNT>
1
> <PUBCHEM_BOND_DEF_STEREO_COUNT>
0
> <PUBCHEM_BOND_UDEF_STEREO_COUNT>
0
> <PUBCHEM_ISOTOPIC_ATOM_COUNT>
0
> <PUBCHEM_COMPONENT_COUNT>
1
> <PUBCHEM_CACTVS_TAUTO_COUNT>
-1
> <PUBCHEM_COORDINATE_TYPE>
1
5
255
> <PUBCHEM_BONDANNOTATIONS>
6  7  3
$$$$
