526783
  -OEChem-10302200292D
 81 80  0     1  0  0  0  0  0999 V2000
   10.6603   -3.8170    0.0000 Si  0  0  0  0  0  0  0  0  0  0  0  0
    9.7942   -4.3170    0.0000 O   0  0  0  0  0  0  0  0  0  0  0  0
    2.8660   -4.3170    0.0000 O   0  0  0  0  0  0  0  0  0  0  0  0
    3.7320   -2.8170    0.0000 O   0  0  0  0  0  0  0  0  0  0  0  0
   11.5263   -3.3170    0.0000 C   0  0  0  0  0  0  0  0  0  0  0  0
    8.9282   -3.8170    0.0000 C   0  0  3  0  0  0  0  0  0  0  0  0
    8.9282   -2.8170    0.0000 C   0  0  0  0  0  0  0  0  0  0  0  0
    8.0622   -4.3170    0.0000 C   0  0  0  0  0  0  0  0  0  0  0  0
   10.1603   -2.9510    0.0000 C   0  0  0  0  0  0  0  0  0  0  0  0
   11.1603   -4.6830    0.0000 C   0  0  0  0  0  0  0  0  0  0  0  0
   12.3923   -2.8170    0.0000 C   0  0  0  0  0  0  0  0  0  0  0  0
   11.0263   -2.4510    0.0000 C   0  0  0  0  0  0  0  0  0  0  0  0
   12.0263   -4.1830    0.0000 C   0  0  0  0  0  0  0  0  0  0  0  0
    8.0622   -2.3170    0.0000 C   0  0  0  0  0  0  0  0  0  0  0  0
    7.1962   -3.8170    0.0000 C   0  0  0  0  0  0  0  0  0  0  0  0
    8.0622   -1.3170    0.0000 C   0  0  0  0  0  0  0  0  0  0  0  0
    7.1962   -0.8170    0.0000 C   0  0  0  0  0  0  0  0  0  0  0  0
    6.3301   -4.3170    0.0000 C   0  0  0  0  0  0  0  0  0  0  0  0
    7.1962    0.1830    0.0000 C   0  0  0  0  0  0  0  0  0  0  0  0
    5.4641   -3.8170    0.0000 C   0  0  0  0  0  0  0  0  0  0  0  0
    6.3301    0.6830    0.0000 C   0  0  0  0  0  0  0  0  0  0  0  0
    6.3301    1.6830    0.0000 C   0  0  0  0  0  0  0  0  0  0  0  0
    5.4641    2.1830    0.0000 C   0  0  0  0  0  0  0  0  0  0  0  0
    4.5981   -4.3170    0.0000 C   0  0  0  0  0  0  0  0  0  0  0  0
    5.4641    3.1830    0.0000 C   0  0  0  0  0  0  0  0  0  0  0  0
    4.5981    3.6830    0.0000 C   0  0  0  0  0  0  0  0  0  0  0  0
    3.7320   -3.8170    0.0000 C   0  0  0  0  0  0  0  0  0  0  0  0
    4.5981    4.6830    0.0000 C   0  0  0  0  0  0  0  0  0  0  0  0
    2.0000   -3.8170    0.0000 C   0  0  0  0  0  0  0  0  0  0  0  0
    9.4651   -3.5070    0.0000 H   0  0  0  0  0  0  0  0  0  0  0  0
    9.5388   -2.9247    0.0000 H   0  0  0  0  0  0  0  0  0  0  0  0
    9.1403   -2.2344    0.0000 H   0  0  0  0  0  0  0  0  0  0  0  0
    7.6636   -4.7919    0.0000 H   0  0  0  0  0  0  0  0  0  0  0  0
    8.4607   -4.7919    0.0000 H   0  0  0  0  0  0  0  0  0  0  0  0
   10.6972   -2.6410    0.0000 H   0  0  0  0  0  0  0  0  0  0  0  0
    9.8503   -2.4140    0.0000 H   0  0  0  0  0  0  0  0  0  0  0  0
    9.6233   -3.2610    0.0000 H   0  0  0  0  0  0  0  0  0  0  0  0
   10.6233   -4.9930    0.0000 H   0  0  0  0  0  0  0  0  0  0  0  0
   11.4703   -5.2200    0.0000 H   0  0  0  0  0  0  0  0  0  0  0  0
   11.6972   -4.3730    0.0000 H   0  0  0  0  0  0  0  0  0  0  0  0
   12.7023   -3.3539    0.0000 H   0  0  0  0  0  0  0  0  0  0  0  0
   12.9292   -2.5070    0.0000 H   0  0  0  0  0  0  0  0  0  0  0  0
   12.0823   -2.2800    0.0000 H   0  0  0  0  0  0  0  0  0  0  0  0
   11.5632   -2.1410    0.0000 H   0  0  0  0  0  0  0  0  0  0  0  0
   10.7163   -1.9140    0.0000 H   0  0  0  0  0  0  0  0  0  0  0  0
   10.4893   -2.7610    0.0000 H   0  0  0  0  0  0  0  0  0  0  0  0
   11.4893   -4.4930    0.0000 H   0  0  0  0  0  0  0  0  0  0  0  0
   12.3363   -4.7200    0.0000 H   0  0  0  0  0  0  0  0  0  0  0  0
   12.5632   -3.8730    0.0000 H   0  0  0  0  0  0  0  0  0  0  0  0
    7.4516   -2.2093    0.0000 H   0  0  0  0  0  0  0  0  0  0  0  0
    7.8501   -2.8996    0.0000 H   0  0  0  0  0  0  0  0  0  0  0  0
    7.5947   -3.3420    0.0000 H   0  0  0  0  0  0  0  0  0  0  0  0
    6.7976   -3.3420    0.0000 H   0  0  0  0  0  0  0  0  0  0  0  0
    8.6728   -1.4246    0.0000 H   0  0  0  0  0  0  0  0  0  0  0  0
    8.2742   -0.7344    0.0000 H   0  0  0  0  0  0  0  0  0  0  0  0
    6.5856   -0.7093    0.0000 H   0  0  0  0  0  0  0  0  0  0  0  0
    6.9841   -1.3996    0.0000 H   0  0  0  0  0  0  0  0  0  0  0  0
    5.9316   -4.7919    0.0000 H   0  0  0  0  0  0  0  0  0  0  0  0
    6.7287   -4.7919    0.0000 H   0  0  0  0  0  0  0  0  0  0  0  0
    7.8067    0.0754    0.0000 H   0  0  0  0  0  0  0  0  0  0  0  0
    7.4082    0.7656    0.0000 H   0  0  0  0  0  0  0  0  0  0  0  0
    5.8626   -3.3420    0.0000 H   0  0  0  0  0  0  0  0  0  0  0  0
    5.0656   -3.3420    0.0000 H   0  0  0  0  0  0  0  0  0  0  0  0
    5.7196    0.7907    0.0000 H   0  0  0  0  0  0  0  0  0  0  0  0
    6.1181    0.1004    0.0000 H   0  0  0  0  0  0  0  0  0  0  0  0
    6.9407    1.5754    0.0000 H   0  0  0  0  0  0  0  0  0  0  0  0
    6.5422    2.2656    0.0000 H   0  0  0  0  0  0  0  0  0  0  0  0
    4.8535    2.2907    0.0000 H   0  0  0  0  0  0  0  0  0  0  0  0
    5.2520    1.6004    0.0000 H   0  0  0  0  0  0  0  0  0  0  0  0
    4.1996   -4.7919    0.0000 H   0  0  0  0  0  0  0  0  0  0  0  0
    4.9966   -4.7919    0.0000 H   0  0  0  0  0  0  0  0  0  0  0  0
    6.0747    3.0753    0.0000 H   0  0  0  0  0  0  0  0  0  0  0  0
    5.6762    3.7656    0.0000 H   0  0  0  0  0  0  0  0  0  0  0  0
    3.9875    3.7907    0.0000 H   0  0  0  0  0  0  0  0  0  0  0  0
    4.3860    3.1004    0.0000 H   0  0  0  0  0  0  0  0  0  0  0  0
    5.2181    4.6830    0.0000 H   0  0  0  0  0  0  0  0  0  0  0  0
    4.5981    5.3030    0.0000 H   0  0  0  0  0  0  0  0  0  0  0  0
    3.9781    4.6830    0.0000 H   0  0  0  0  0  0  0  0  0  0  0  0
    2.3100   -3.2800    0.0000 H   0  0  0  0  0  0  0  0  0  0  0  0
    1.4631   -3.5070    0.0000 H   0  0  0  0  0  0  0  0  0  0  0  0
    1.6900   -4.3539    0.0000 H   0  0  0  0  0  0  0  0  0  0  0  0
  1  2  1  0  0  0  0
  1  5  1  0  0  0  0
  1  9  1  0  0  0  0
  1 10  1  0  0  0  0
  2  6  1  0  0  0  0
  3 27  1  0  0  0  0
  3 29  1  0  0  0  0
  4 27  2  0  0  0  0
  5 11  1  0  0  0  0
  5 12  1  0  0  0  0
  5 13  1  0  0  0  0
  6  7  1  0  0  0  0
  6  8  1  0  0  0  0
  6 30  1  0  0  0  0
  7 14  1  0  0  0  0
  7 31  1  0  0  0  0
  7 32  1  0  0  0  0
  8 15  1  0  0  0  0
  8 33  1  0  0  0  0
  8 34  1  0  0  0  0
  9 35  1  0  0  0  0
  9 36  1  0  0  0  0
  9 37  1  0  0  0  0
 10 38  1  0  0  0  0
 10 39  1  0  0  0  0
 10 40  1  0  0  0  0
 11 41  1  0  0  0  0
 11 42  1  0  0  0  0
 11 43  1  0  0  0  0
 12 44  1  0  0  0  0
 12 45  1  0  0  0  0
 12 46  1  0  0  0  0
 13 47  1  0  0  0  0
 13 48  1  0  0  0  0
 13 49  1  0  0  0  0
 14 16  1  0  0  0  0
 14 50  1  0  0  0  0
 14 51  1  0  0  0  0
 15 18  1  0  0  0  0
 15 52  1  0  0  0  0
 15 53  1  0  0  0  0
 16 17  1  0  0  0  0
 16 54  1  0  0  0  0
 16 55  1  0  0  0  0
 17 19  1  0  0  0  0
 17 56  1  0  0  0  0
 17 57  1  0  0  0  0
 18 20  1  0  0  0  0
 18 58  1  0  0  0  0
 18 59  1  0  0  0  0
 19 21  1  0  0  0  0
 19 60  1  0  0  0  0
 19 61  1  0  0  0  0
 20 24  1  0  0  0  0
 20 62  1  0  0  0  0
 20 63  1  0  0  0  0
 21 22  1  0  0  0  0
 21 64  1  0  0  0  0
 21 65  1  0  0  0  0
 22 23  1  0  0  0  0
 22 66  1  0  0  0  0
 22 67  1  0  0  0  0
 23 25  1  0  0  0  0
 23 68  1  0  0  0  0
 23 69  1  0  0  0  0
 24 27  1  0  0  0  0
 24 70  1  0  0  0  0
 24 71  1  0  0  0  0
 25 26  1  0  0  0  0
 25 72  1  0  0  0  0
 25 73  1  0  0  0  0
 26 28  1  0  0  0  0
 26 74  1  0  0  0  0
 26 75  1  0  0  0  0
 28 76  1  0  0  0  0
 28 77  1  0  0  0  0
 28 78  1  0  0  0  0
 29 79  1  0  0  0  0
 29 80  1  0  0  0  0
 29 81  1  0  0  0  0
M  END
> <PUBCHEM_COMPOUND_CID>
526783
> <PUBCHEM_COMPOUND_CANONICALIZED>
1
> <PUBCHEM_CACTVS_COMPLEXITY>
401
> <PUBCHEM_CACTVS_HBOND_ACCEPTOR>
3
> <PUBCHEM_CACTVS_HBOND_DONOR>
0
> <PUBCHEM_CACTVS_ROTATABLE_BOND>
20
> <PUBCHEM_CACTVS_SUBSKEYS>
AAADcfB4MAgAAAAAAAAAAAAAAAAAAAAAAAAAAAAAAAAAAAAAAAAAGhAAAEAADBSgoAJCCAAABAEIAACQCAAAAAAAAAAAAAEAAAAAABIAAAAAAAAEAAAAAAGIyKCAAAAAAAAAAAAAAAAAAAAAAAAAAAAAAA==
> <PUBCHEM_IUPAC_OPENEYE_NAME>
methyl 7-[tert-butyl(dimethyl)silyl]oxyoctadecanoate
> <PUBCHEM_IUPAC_CAS_NAME>
7-[tert-butyl(dimethyl)silyl]oxyoctadecanoic acid methyl ester
> <PUBCHEM_IUPAC_NAME_MARKUP>
methyl 7-[<I>tert</I>-butyl(dimethyl)silyl]oxyoctadecanoate
> <PUBCHEM_IUPAC_NAME>
methyl 7-[tert-butyl(dimethyl)silyl]oxyoctadecanoate
> <PUBCHEM_IUPAC_SYSTEMATIC_NAME>
methyl 7-[tert-butyl(dimethyl)silyl]oxyoctadecanoate
> <PUBCHEM_IUPAC_TRADITIONAL_NAME>
7-[tert-butyl(dimethyl)silyl]oxystearic acid methyl ester
> <PUBCHEM_IUPAC_INCHI>
InChI=1S/C25H52O3Si/c1-8-9-10-11-12-13-14-15-17-20-23(28-29(6,7)25(2,3)4)21-18-16-19-22-24(26)27-5/h23H,8-22H2,1-7H3
> <PUBCHEM_IUPAC_INCHIKEY>
QGRSUJGWWQYNRF-UHFFFAOYSA-N
> <PUBCHEM_EXACT_MASS>
428.36857205
> <PUBCHEM_MOLECULAR_FORMULA>
C25H52O3Si
> <PUBCHEM_MOLECULAR_WEIGHT>
428.8
> <PUBCHEM_OPENEYE_CAN_SMILES>
CCCCCCCCCCCC(CCCCCC(=O)OC)O[Si](C)(C)C(C)(C)C
> <PUBCHEM_OPENEYE_ISO_SMILES>
CCCCCCCCCCCC(CCCCCC(=O)OC)O[Si](C)(C)C(C)(C)C
> <PUBCHEM_CACTVS_TPSA>
35.5
> <PUBCHEM_MONOISOTOPIC_WEIGHT>
428.36857205
> <PUBCHEM_TOTAL_CHARGE>
0
> <PUBCHEM_HEAVY_ATOM_COUNT>
29
> <PUBCHEM_ATOM_DEF_STEREO_COUNT>
0
> <PUBCHEM_ATOM_UDEF_STEREO_COUNT>
1
> <PUBCHEM_BOND_DEF_STEREO_COUNT>
0
> <PUBCHEM_BOND_UDEF_STEREO_COUNT>
0
> <PUBCHEM_ISOTOPIC_ATOM_COUNT>
0
> <PUBCHEM_COMPONENT_COUNT>
1
> <PUBCHEM_CACTVS_TAUTO_COUNT>
-1
> <PUBCHEM_COORDINATE_TYPE>
1
5
255
> <PUBCHEM_BONDANNOTATIONS>
6  7  3
$$$$
