526773
  -OEChem-10302200292D
 75 74  0     1  0  0  0  0  0999 V2000
   10.6603   -3.0670    0.0000 Si  0  0  0  0  0  0  0  0  0  0  0  0
    9.7942   -3.5670    0.0000 O   0  0  0  0  0  0  0  0  0  0  0  0
    2.8660   -3.5670    0.0000 O   0  0  0  0  0  0  0  0  0  0  0  0
    3.7320   -2.0670    0.0000 O   0  0  0  0  0  0  0  0  0  0  0  0
   11.5263   -2.5670    0.0000 C   0  0  0  0  0  0  0  0  0  0  0  0
    8.9282   -3.0670    0.0000 C   0  0  3  0  0  0  0  0  0  0  0  0
    8.9282   -2.0670    0.0000 C   0  0  0  0  0  0  0  0  0  0  0  0
    8.0622   -3.5670    0.0000 C   0  0  0  0  0  0  0  0  0  0  0  0
   10.1603   -2.2010    0.0000 C   0  0  0  0  0  0  0  0  0  0  0  0
   11.1603   -3.9330    0.0000 C   0  0  0  0  0  0  0  0  0  0  0  0
   12.3923   -2.0670    0.0000 C   0  0  0  0  0  0  0  0  0  0  0  0
   11.0263   -1.7010    0.0000 C   0  0  0  0  0  0  0  0  0  0  0  0
   12.0263   -3.4330    0.0000 C   0  0  0  0  0  0  0  0  0  0  0  0
    8.0622   -1.5670    0.0000 C   0  0  0  0  0  0  0  0  0  0  0  0
    7.1962   -3.0670    0.0000 C   0  0  0  0  0  0  0  0  0  0  0  0
    8.0622   -0.5670    0.0000 C   0  0  0  0  0  0  0  0  0  0  0  0
    6.3301   -3.5670    0.0000 C   0  0  0  0  0  0  0  0  0  0  0  0
    7.1962   -0.0670    0.0000 C   0  0  0  0  0  0  0  0  0  0  0  0
    7.1962    0.9330    0.0000 C   0  0  0  0  0  0  0  0  0  0  0  0
    5.4641   -3.0670    0.0000 C   0  0  0  0  0  0  0  0  0  0  0  0
    6.3301    1.4330    0.0000 C   0  0  0  0  0  0  0  0  0  0  0  0
    4.5981   -3.5670    0.0000 C   0  0  0  0  0  0  0  0  0  0  0  0
    6.3301    2.4330    0.0000 C   0  0  0  0  0  0  0  0  0  0  0  0
    5.4641    2.9330    0.0000 C   0  0  0  0  0  0  0  0  0  0  0  0
    3.7320   -3.0670    0.0000 C   0  0  0  0  0  0  0  0  0  0  0  0
    5.4641    3.9330    0.0000 C   0  0  0  0  0  0  0  0  0  0  0  0
    2.0000   -3.0670    0.0000 C   0  0  0  0  0  0  0  0  0  0  0  0
    9.4651   -2.7570    0.0000 H   0  0  0  0  0  0  0  0  0  0  0  0
    9.5388   -2.1747    0.0000 H   0  0  0  0  0  0  0  0  0  0  0  0
    9.1403   -1.4844    0.0000 H   0  0  0  0  0  0  0  0  0  0  0  0
    7.6636   -4.0419    0.0000 H   0  0  0  0  0  0  0  0  0  0  0  0
    8.4607   -4.0419    0.0000 H   0  0  0  0  0  0  0  0  0  0  0  0
   10.6972   -1.8910    0.0000 H   0  0  0  0  0  0  0  0  0  0  0  0
    9.8503   -1.6640    0.0000 H   0  0  0  0  0  0  0  0  0  0  0  0
    9.6233   -2.5110    0.0000 H   0  0  0  0  0  0  0  0  0  0  0  0
   10.6233   -4.2430    0.0000 H   0  0  0  0  0  0  0  0  0  0  0  0
   11.4703   -4.4700    0.0000 H   0  0  0  0  0  0  0  0  0  0  0  0
   11.6972   -3.6230    0.0000 H   0  0  0  0  0  0  0  0  0  0  0  0
   12.7023   -2.6039    0.0000 H   0  0  0  0  0  0  0  0  0  0  0  0
   12.9292   -1.7570    0.0000 H   0  0  0  0  0  0  0  0  0  0  0  0
   12.0823   -1.5300    0.0000 H   0  0  0  0  0  0  0  0  0  0  0  0
   11.5632   -1.3910    0.0000 H   0  0  0  0  0  0  0  0  0  0  0  0
   10.7163   -1.1640    0.0000 H   0  0  0  0  0  0  0  0  0  0  0  0
   10.4893   -2.0110    0.0000 H   0  0  0  0  0  0  0  0  0  0  0  0
   11.4893   -3.7430    0.0000 H   0  0  0  0  0  0  0  0  0  0  0  0
   12.3363   -3.9700    0.0000 H   0  0  0  0  0  0  0  0  0  0  0  0
   12.5632   -3.1230    0.0000 H   0  0  0  0  0  0  0  0  0  0  0  0
    7.4516   -1.4593    0.0000 H   0  0  0  0  0  0  0  0  0  0  0  0
    7.8501   -2.1496    0.0000 H   0  0  0  0  0  0  0  0  0  0  0  0
    7.5947   -2.5920    0.0000 H   0  0  0  0  0  0  0  0  0  0  0  0
    6.7976   -2.5920    0.0000 H   0  0  0  0  0  0  0  0  0  0  0  0
    8.6728   -0.6746    0.0000 H   0  0  0  0  0  0  0  0  0  0  0  0
    8.2742    0.0156    0.0000 H   0  0  0  0  0  0  0  0  0  0  0  0
    5.9316   -4.0419    0.0000 H   0  0  0  0  0  0  0  0  0  0  0  0
    6.7287   -4.0419    0.0000 H   0  0  0  0  0  0  0  0  0  0  0  0
    6.5856    0.0407    0.0000 H   0  0  0  0  0  0  0  0  0  0  0  0
    6.9841   -0.6496    0.0000 H   0  0  0  0  0  0  0  0  0  0  0  0
    7.8067    0.8254    0.0000 H   0  0  0  0  0  0  0  0  0  0  0  0
    7.4082    1.5156    0.0000 H   0  0  0  0  0  0  0  0  0  0  0  0
    5.8626   -2.5920    0.0000 H   0  0  0  0  0  0  0  0  0  0  0  0
    5.0656   -2.5920    0.0000 H   0  0  0  0  0  0  0  0  0  0  0  0
    5.7196    1.5407    0.0000 H   0  0  0  0  0  0  0  0  0  0  0  0
    6.1181    0.8504    0.0000 H   0  0  0  0  0  0  0  0  0  0  0  0
    4.1996   -4.0419    0.0000 H   0  0  0  0  0  0  0  0  0  0  0  0
    4.9966   -4.0419    0.0000 H   0  0  0  0  0  0  0  0  0  0  0  0
    6.9407    2.3253    0.0000 H   0  0  0  0  0  0  0  0  0  0  0  0
    6.5422    3.0156    0.0000 H   0  0  0  0  0  0  0  0  0  0  0  0
    4.8535    3.0407    0.0000 H   0  0  0  0  0  0  0  0  0  0  0  0
    5.2520    2.3504    0.0000 H   0  0  0  0  0  0  0  0  0  0  0  0
    6.0841    3.9330    0.0000 H   0  0  0  0  0  0  0  0  0  0  0  0
    5.4641    4.5530    0.0000 H   0  0  0  0  0  0  0  0  0  0  0  0
    4.8441    3.9330    0.0000 H   0  0  0  0  0  0  0  0  0  0  0  0
    2.3100   -2.5300    0.0000 H   0  0  0  0  0  0  0  0  0  0  0  0
    1.4631   -2.7570    0.0000 H   0  0  0  0  0  0  0  0  0  0  0  0
    1.6900   -3.6039    0.0000 H   0  0  0  0  0  0  0  0  0  0  0  0
  1  2  1  0  0  0  0
  1  5  1  0  0  0  0
  1  9  1  0  0  0  0
  1 10  1  0  0  0  0
  2  6  1  0  0  0  0
  3 25  1  0  0  0  0
  3 27  1  0  0  0  0
  4 25  2  0  0  0  0
  5 11  1  0  0  0  0
  5 12  1  0  0  0  0
  5 13  1  0  0  0  0
  6  7  1  0  0  0  0
  6  8  1  0  0  0  0
  6 28  1  0  0  0  0
  7 14  1  0  0  0  0
  7 29  1  0  0  0  0
  7 30  1  0  0  0  0
  8 15  1  0  0  0  0
  8 31  1  0  0  0  0
  8 32  1  0  0  0  0
  9 33  1  0  0  0  0
  9 34  1  0  0  0  0
  9 35  1  0  0  0  0
 10 36  1  0  0  0  0
 10 37  1  0  0  0  0
 10 38  1  0  0  0  0
 11 39  1  0  0  0  0
 11 40  1  0  0  0  0
 11 41  1  0  0  0  0
 12 42  1  0  0  0  0
 12 43  1  0  0  0  0
 12 44  1  0  0  0  0
 13 45  1  0  0  0  0
 13 46  1  0  0  0  0
 13 47  1  0  0  0  0
 14 16  1  0  0  0  0
 14 48  1  0  0  0  0
 14 49  1  0  0  0  0
 15 17  1  0  0  0  0
 15 50  1  0  0  0  0
 15 51  1  0  0  0  0
 16 18  1  0  0  0  0
 16 52  1  0  0  0  0
 16 53  1  0  0  0  0
 17 20  1  0  0  0  0
 17 54  1  0  0  0  0
 17 55  1  0  0  0  0
 18 19  1  0  0  0  0
 18 56  1  0  0  0  0
 18 57  1  0  0  0  0
 19 21  1  0  0  0  0
 19 58  1  0  0  0  0
 19 59  1  0  0  0  0
 20 22  1  0  0  0  0
 20 60  1  0  0  0  0
 20 61  1  0  0  0  0
 21 23  1  0  0  0  0
 21 62  1  0  0  0  0
 21 63  1  0  0  0  0
 22 25  1  0  0  0  0
 22 64  1  0  0  0  0
 22 65  1  0  0  0  0
 23 24  1  0  0  0  0
 23 66  1  0  0  0  0
 23 67  1  0  0  0  0
 24 26  1  0  0  0  0
 24 68  1  0  0  0  0
 24 69  1  0  0  0  0
 26 70  1  0  0  0  0
 26 71  1  0  0  0  0
 26 72  1  0  0  0  0
 27 73  1  0  0  0  0
 27 74  1  0  0  0  0
 27 75  1  0  0  0  0
M  END
> <PUBCHEM_COMPOUND_CID>
526773
> <PUBCHEM_COMPOUND_CANONICALIZED>
1
> <PUBCHEM_CACTVS_COMPLEXITY>
374
> <PUBCHEM_CACTVS_HBOND_ACCEPTOR>
3
> <PUBCHEM_CACTVS_HBOND_DONOR>
0
> <PUBCHEM_CACTVS_ROTATABLE_BOND>
18
> <PUBCHEM_CACTVS_SUBSKEYS>
AAADcfB4MAgAAAAAAAAAAAAAAAAAAAAAAAAAAAAAAAAAAAAAAAAAGhAAAEAADBSgoAJCCAAABAEIAACQCAAAAAAAAAAAAAEAAAAAABIAAAAAAAAEAAAAAAGIyKCAAAAAAAAAAAAAAAAAAAAAAAAAAAAAAA==
> <PUBCHEM_IUPAC_OPENEYE_NAME>
methyl 7-[tert-butyl(dimethyl)silyl]oxyhexadecanoate
> <PUBCHEM_IUPAC_CAS_NAME>
7-[tert-butyl(dimethyl)silyl]oxyhexadecanoic acid methyl ester
> <PUBCHEM_IUPAC_NAME_MARKUP>
methyl 7-[<I>tert</I>-butyl(dimethyl)silyl]oxyhexadecanoate
> <PUBCHEM_IUPAC_NAME>
methyl 7-[tert-butyl(dimethyl)silyl]oxyhexadecanoate
> <PUBCHEM_IUPAC_SYSTEMATIC_NAME>
methyl 7-[tert-butyl(dimethyl)silyl]oxyhexadecanoate
> <PUBCHEM_IUPAC_TRADITIONAL_NAME>
7-[tert-butyl(dimethyl)silyl]oxypalmitic acid methyl ester
> <PUBCHEM_IUPAC_INCHI>
InChI=1S/C23H48O3Si/c1-8-9-10-11-12-13-15-18-21(26-27(6,7)23(2,3)4)19-16-14-17-20-22(24)25-5/h21H,8-20H2,1-7H3
> <PUBCHEM_IUPAC_INCHIKEY>
NZDQNJASKXFLKO-UHFFFAOYSA-N
> <PUBCHEM_EXACT_MASS>
400.33727192
> <PUBCHEM_MOLECULAR_FORMULA>
C23H48O3Si
> <PUBCHEM_MOLECULAR_WEIGHT>
400.7
> <PUBCHEM_OPENEYE_CAN_SMILES>
CCCCCCCCCC(CCCCCC(=O)OC)O[Si](C)(C)C(C)(C)C
> <PUBCHEM_OPENEYE_ISO_SMILES>
CCCCCCCCCC(CCCCCC(=O)OC)O[Si](C)(C)C(C)(C)C
> <PUBCHEM_CACTVS_TPSA>
35.5
> <PUBCHEM_MONOISOTOPIC_WEIGHT>
400.33727192
> <PUBCHEM_TOTAL_CHARGE>
0
> <PUBCHEM_HEAVY_ATOM_COUNT>
27
> <PUBCHEM_ATOM_DEF_STEREO_COUNT>
0
> <PUBCHEM_ATOM_UDEF_STEREO_COUNT>
1
> <PUBCHEM_BOND_DEF_STEREO_COUNT>
0
> <PUBCHEM_BOND_UDEF_STEREO_COUNT>
0
> <PUBCHEM_ISOTOPIC_ATOM_COUNT>
0
> <PUBCHEM_COMPONENT_COUNT>
1
> <PUBCHEM_CACTVS_TAUTO_COUNT>
-1
> <PUBCHEM_COORDINATE_TYPE>
1
5
255
> <PUBCHEM_BONDANNOTATIONS>
6  7  3
$$$$
