526766
  -OEChem-10302200292D
 29 30  0     1  0  0  0  0  0999 V2000
    4.7320   -0.1830    0.0000 O   0  0  0  0  0  0  0  0  0  0  0  0
    5.0981    2.1830    0.0000 O   0  0  0  0  0  0  0  0  0  0  0  0
    3.3660    2.1830    0.0000 O   0  0  0  0  0  0  0  0  0  0  0  0
    3.7320   -0.1830    0.0000 C   0  0  3  0  0  0  0  0  0  0  0  0
    4.2320    0.6830    0.0000 C   0  0  3  0  0  0  0  0  0  0  0  0
    2.8660   -0.6830    0.0000 C   0  0  0  0  0  0  0  0  0  0  0  0
    4.2320    1.6830    0.0000 C   0  0  0  0  0  0  0  0  0  0  0  0
    2.8660   -1.6830    0.0000 C   0  0  0  0  0  0  0  0  0  0  0  0
    2.0000   -2.1830    0.0000 C   0  0  0  0  0  0  0  0  0  0  0  0
    3.7320   -2.1830    0.0000 C   0  0  0  0  0  0  0  0  0  0  0  0
    5.0981    3.1830    0.0000 C   0  0  0  0  0  0  0  0  0  0  0  0
    2.0000   -3.1830    0.0000 C   0  0  0  0  0  0  0  0  0  0  0  0
    3.7320   -3.1830    0.0000 C   0  0  0  0  0  0  0  0  0  0  0  0
    2.8660   -3.6830    0.0000 C   0  0  0  0  0  0  0  0  0  0  0  0
    5.9641    3.6830    0.0000 C   0  0  0  0  0  0  0  0  0  0  0  0
    3.8925   -0.7819    0.0000 H   0  0  0  0  0  0  0  0  0  0  0  0
    4.8309    0.8435    0.0000 H   0  0  0  0  0  0  0  0  0  0  0  0
    2.6540   -0.1004    0.0000 H   0  0  0  0  0  0  0  0  0  0  0  0
    2.2554   -0.7907    0.0000 H   0  0  0  0  0  0  0  0  0  0  0  0
    1.4631   -1.8730    0.0000 H   0  0  0  0  0  0  0  0  0  0  0  0
    4.2690   -1.8730    0.0000 H   0  0  0  0  0  0  0  0  0  0  0  0
    4.8860    3.7656    0.0000 H   0  0  0  0  0  0  0  0  0  0  0  0
    4.4875    3.0753    0.0000 H   0  0  0  0  0  0  0  0  0  0  0  0
    1.4631   -3.4930    0.0000 H   0  0  0  0  0  0  0  0  0  0  0  0
    4.2690   -3.4930    0.0000 H   0  0  0  0  0  0  0  0  0  0  0  0
    2.8660   -4.3030    0.0000 H   0  0  0  0  0  0  0  0  0  0  0  0
    6.2741    3.1461    0.0000 H   0  0  0  0  0  0  0  0  0  0  0  0
    6.5010    3.9930    0.0000 H   0  0  0  0  0  0  0  0  0  0  0  0
    5.6541    4.2200    0.0000 H   0  0  0  0  0  0  0  0  0  0  0  0
  1  4  1  0  0  0  0
  1  5  1  0  0  0  0
  2  7  1  0  0  0  0
  2 11  1  0  0  0  0
  3  7  2  0  0  0  0
  4  5  1  0  0  0  0
  4  6  1  0  0  0  0
  4 16  1  0  0  0  0
  5  7  1  0  0  0  0
  5 17  1  0  0  0  0
  6  8  1  0  0  0  0
  6 18  1  0  0  0  0
  6 19  1  0  0  0  0
  8  9  2  0  0  0  0
  8 10  1  0  0  0  0
  9 12  1  0  0  0  0
  9 20  1  0  0  0  0
 10 13  2  0  0  0  0
 10 21  1  0  0  0  0
 11 15  1  0  0  0  0
 11 22  1  0  0  0  0
 11 23  1  0  0  0  0
 12 14  2  0  0  0  0
 12 24  1  0  0  0  0
 13 14  1  0  0  0  0
 13 25  1  0  0  0  0
 14 26  1  0  0  0  0
 15 27  1  0  0  0  0
 15 28  1  0  0  0  0
 15 29  1  0  0  0  0
M  END
> <PUBCHEM_COMPOUND_CID>
526766
> <PUBCHEM_COMPOUND_CANONICALIZED>
1
> <PUBCHEM_CACTVS_COMPLEXITY>
221
> <PUBCHEM_CACTVS_HBOND_ACCEPTOR>
3
> <PUBCHEM_CACTVS_HBOND_DONOR>
0
> <PUBCHEM_CACTVS_ROTATABLE_BOND>
5
> <PUBCHEM_CACTVS_SUBSKEYS>
AAADccBwMAAAAAAAAAAAAAAAEgAAAAAAAAAwAAAAAAAAAAABAAAAGgAAAAAADBSgmAIyCIAABACIAiDSCAICAAAgAAAIiAFAAIgJIDaAERSCIAAl4AEKiAeIyLCOAAAAAAAAAAAAAAAAAAAAAAAAAAAAAA==
> <PUBCHEM_IUPAC_OPENEYE_NAME>
ethyl 3-benzyloxirane-2-carboxylate
> <PUBCHEM_IUPAC_CAS_NAME>
3-(phenylmethyl)-2-oxiranecarboxylic acid ethyl ester
> <PUBCHEM_IUPAC_NAME_MARKUP>
ethyl 3-benzyloxirane-2-carboxylate
> <PUBCHEM_IUPAC_NAME>
ethyl 3-benzyloxirane-2-carboxylate
> <PUBCHEM_IUPAC_SYSTEMATIC_NAME>
ethyl 3-(phenylmethyl)oxirane-2-carboxylate
> <PUBCHEM_IUPAC_TRADITIONAL_NAME>
3-benzyloxirane-2-carboxylic acid ethyl ester
> <PUBCHEM_IUPAC_INCHI>
InChI=1S/C12H14O3/c1-2-14-12(13)11-10(15-11)8-9-6-4-3-5-7-9/h3-7,10-11H,2,8H2,1H3
> <PUBCHEM_IUPAC_INCHIKEY>
VBLCHSPDSRPGCQ-UHFFFAOYSA-N
> <PUBCHEM_XLOGP3_AA>
2.2
> <PUBCHEM_EXACT_MASS>
206.094294304
> <PUBCHEM_MOLECULAR_FORMULA>
C12H14O3
> <PUBCHEM_MOLECULAR_WEIGHT>
206.24
> <PUBCHEM_OPENEYE_CAN_SMILES>
CCOC(=O)C1C(O1)CC2=CC=CC=C2
> <PUBCHEM_OPENEYE_ISO_SMILES>
CCOC(=O)C1C(O1)CC2=CC=CC=C2
> <PUBCHEM_CACTVS_TPSA>
38.8
> <PUBCHEM_MONOISOTOPIC_WEIGHT>
206.094294304
> <PUBCHEM_TOTAL_CHARGE>
0
> <PUBCHEM_HEAVY_ATOM_COUNT>
15
> <PUBCHEM_ATOM_DEF_STEREO_COUNT>
0
> <PUBCHEM_ATOM_UDEF_STEREO_COUNT>
2
> <PUBCHEM_BOND_DEF_STEREO_COUNT>
0
> <PUBCHEM_BOND_UDEF_STEREO_COUNT>
0
> <PUBCHEM_ISOTOPIC_ATOM_COUNT>
0
> <PUBCHEM_COMPONENT_COUNT>
1
> <PUBCHEM_CACTVS_TAUTO_COUNT>
-1
> <PUBCHEM_COORDINATE_TYPE>
1
5
255
> <PUBCHEM_BONDANNOTATIONS>
10  13  8
12  14  8
13  14  8
4  6  3
5  7  3
8  10  8
8  9  8
9  12  8
$$$$
