526792
  -OEChem-10302200292D
 78 77  0     1  0  0  0  0  0999 V2000
    9.7942   -4.8170    0.0000 Si  0  0  0  0  0  0  0  0  0  0  0  0
    8.9282   -5.3170    0.0000 O   0  0  0  0  0  0  0  0  0  0  0  0
    5.4641   -5.3170    0.0000 O   0  0  0  0  0  0  0  0  0  0  0  0
    6.3301   -3.8170    0.0000 O   0  0  0  0  0  0  0  0  0  0  0  0
   10.6603   -4.3170    0.0000 C   0  0  0  0  0  0  0  0  0  0  0  0
    8.0622   -4.8170    0.0000 C   0  0  3  0  0  0  0  0  0  0  0  0
    9.2942   -3.9510    0.0000 C   0  0  0  0  0  0  0  0  0  0  0  0
   10.2942   -5.6830    0.0000 C   0  0  0  0  0  0  0  0  0  0  0  0
   11.5263   -3.8170    0.0000 C   0  0  0  0  0  0  0  0  0  0  0  0
   10.1603   -3.4510    0.0000 C   0  0  0  0  0  0  0  0  0  0  0  0
   11.1603   -5.1830    0.0000 C   0  0  0  0  0  0  0  0  0  0  0  0
    8.0622   -3.8170    0.0000 C   0  0  0  0  0  0  0  0  0  0  0  0
    7.1962   -3.3170    0.0000 C   0  0  0  0  0  0  0  0  0  0  0  0
    7.1962   -5.3170    0.0000 C   0  0  0  0  0  0  0  0  0  0  0  0
    7.1962   -2.3170    0.0000 C   0  0  0  0  0  0  0  0  0  0  0  0
    6.3301   -1.8170    0.0000 C   0  0  0  0  0  0  0  0  0  0  0  0
    6.3301   -0.8170    0.0000 C   0  0  0  0  0  0  0  0  0  0  0  0
    5.4641   -0.3170    0.0000 C   0  0  0  0  0  0  0  0  0  0  0  0
    5.4641    0.6830    0.0000 C   0  0  0  0  0  0  0  0  0  0  0  0
    4.5981    1.1830    0.0000 C   0  0  0  0  0  0  0  0  0  0  0  0
    6.3301   -4.8170    0.0000 C   0  0  0  0  0  0  0  0  0  0  0  0
    4.5981    2.1830    0.0000 C   0  0  0  0  0  0  0  0  0  0  0  0
    3.7320    2.6830    0.0000 C   0  0  0  0  0  0  0  0  0  0  0  0
    3.7320    3.6830    0.0000 C   0  0  0  0  0  0  0  0  0  0  0  0
    2.8660    4.1830    0.0000 C   0  0  0  0  0  0  0  0  0  0  0  0
    2.8660    5.1830    0.0000 C   0  0  0  0  0  0  0  0  0  0  0  0
    4.5981   -4.8170    0.0000 C   0  0  0  0  0  0  0  0  0  0  0  0
    2.0000    5.6830    0.0000 C   0  0  0  0  0  0  0  0  0  0  0  0
    8.0622   -5.4370    0.0000 H   0  0  0  0  0  0  0  0  0  0  0  0
    9.8312   -3.6410    0.0000 H   0  0  0  0  0  0  0  0  0  0  0  0
    8.9842   -3.4140    0.0000 H   0  0  0  0  0  0  0  0  0  0  0  0
    8.7573   -4.2610    0.0000 H   0  0  0  0  0  0  0  0  0  0  0  0
    9.7573   -5.9930    0.0000 H   0  0  0  0  0  0  0  0  0  0  0  0
   10.6042   -6.2200    0.0000 H   0  0  0  0  0  0  0  0  0  0  0  0
   10.8312   -5.3730    0.0000 H   0  0  0  0  0  0  0  0  0  0  0  0
   11.8363   -4.3539    0.0000 H   0  0  0  0  0  0  0  0  0  0  0  0
   12.0632   -3.5070    0.0000 H   0  0  0  0  0  0  0  0  0  0  0  0
   11.2163   -3.2800    0.0000 H   0  0  0  0  0  0  0  0  0  0  0  0
   10.6972   -3.1410    0.0000 H   0  0  0  0  0  0  0  0  0  0  0  0
    9.8503   -2.9140    0.0000 H   0  0  0  0  0  0  0  0  0  0  0  0
    9.6233   -3.7610    0.0000 H   0  0  0  0  0  0  0  0  0  0  0  0
   10.6233   -5.4930    0.0000 H   0  0  0  0  0  0  0  0  0  0  0  0
   11.4703   -5.7200    0.0000 H   0  0  0  0  0  0  0  0  0  0  0  0
   11.6972   -4.8730    0.0000 H   0  0  0  0  0  0  0  0  0  0  0  0
    8.6728   -3.9246    0.0000 H   0  0  0  0  0  0  0  0  0  0  0  0
    8.2742   -3.2344    0.0000 H   0  0  0  0  0  0  0  0  0  0  0  0
    6.5856   -3.2093    0.0000 H   0  0  0  0  0  0  0  0  0  0  0  0
    6.9841   -3.8996    0.0000 H   0  0  0  0  0  0  0  0  0  0  0  0
    6.7976   -5.7919    0.0000 H   0  0  0  0  0  0  0  0  0  0  0  0
    7.5947   -5.7919    0.0000 H   0  0  0  0  0  0  0  0  0  0  0  0
    7.8067   -2.4247    0.0000 H   0  0  0  0  0  0  0  0  0  0  0  0
    7.4082   -1.7344    0.0000 H   0  0  0  0  0  0  0  0  0  0  0  0
    5.7196   -1.7093    0.0000 H   0  0  0  0  0  0  0  0  0  0  0  0
    6.1181   -2.3996    0.0000 H   0  0  0  0  0  0  0  0  0  0  0  0
    6.9407   -0.9246    0.0000 H   0  0  0  0  0  0  0  0  0  0  0  0
    6.5422   -0.2344    0.0000 H   0  0  0  0  0  0  0  0  0  0  0  0
    4.8535   -0.2093    0.0000 H   0  0  0  0  0  0  0  0  0  0  0  0
    5.2520   -0.8996    0.0000 H   0  0  0  0  0  0  0  0  0  0  0  0
    6.0747    0.5754    0.0000 H   0  0  0  0  0  0  0  0  0  0  0  0
    5.6762    1.2656    0.0000 H   0  0  0  0  0  0  0  0  0  0  0  0
    3.9875    1.2907    0.0000 H   0  0  0  0  0  0  0  0  0  0  0  0
    4.3860    0.6004    0.0000 H   0  0  0  0  0  0  0  0  0  0  0  0
    5.2087    2.0753    0.0000 H   0  0  0  0  0  0  0  0  0  0  0  0
    4.8101    2.7656    0.0000 H   0  0  0  0  0  0  0  0  0  0  0  0
    3.1215    2.7907    0.0000 H   0  0  0  0  0  0  0  0  0  0  0  0
    3.5200    2.1004    0.0000 H   0  0  0  0  0  0  0  0  0  0  0  0
    4.3426    3.5754    0.0000 H   0  0  0  0  0  0  0  0  0  0  0  0
    3.9441    4.2656    0.0000 H   0  0  0  0  0  0  0  0  0  0  0  0
    2.2554    4.2907    0.0000 H   0  0  0  0  0  0  0  0  0  0  0  0
    2.6540    3.6004    0.0000 H   0  0  0  0  0  0  0  0  0  0  0  0
    3.4766    5.0754    0.0000 H   0  0  0  0  0  0  0  0  0  0  0  0
    3.0781    5.7656    0.0000 H   0  0  0  0  0  0  0  0  0  0  0  0
    2.3100    6.2200    0.0000 H   0  0  0  0  0  0  0  0  0  0  0  0
    1.4631    5.9930    0.0000 H   0  0  0  0  0  0  0  0  0  0  0  0
    1.6900    5.1461    0.0000 H   0  0  0  0  0  0  0  0  0  0  0  0
    4.9081   -4.2800    0.0000 H   0  0  0  0  0  0  0  0  0  0  0  0
    4.0611   -4.5070    0.0000 H   0  0  0  0  0  0  0  0  0  0  0  0
    4.2881   -5.3539    0.0000 H   0  0  0  0  0  0  0  0  0  0  0  0
  1  2  1  0  0  0  0
  1  5  1  0  0  0  0
  1  7  1  0  0  0  0
  1  8  1  0  0  0  0
  2  6  1  0  0  0  0
  3 21  1  0  0  0  0
  3 27  1  0  0  0  0
  4 21  2  0  0  0  0
  5  9  1  0  0  0  0
  5 10  1  0  0  0  0
  5 11  1  0  0  0  0
  6 12  1  0  0  0  0
  6 14  1  0  0  0  0
  6 29  1  0  0  0  0
  7 30  1  0  0  0  0
  7 31  1  0  0  0  0
  7 32  1  0  0  0  0
  8 33  1  0  0  0  0
  8 34  1  0  0  0  0
  8 35  1  0  0  0  0
  9 36  1  0  0  0  0
  9 37  1  0  0  0  0
  9 38  1  0  0  0  0
 10 39  1  0  0  0  0
 10 40  1  0  0  0  0
 10 41  1  0  0  0  0
 11 42  1  0  0  0  0
 11 43  1  0  0  0  0
 11 44  1  0  0  0  0
 12 13  1  0  0  0  0
 12 45  1  0  0  0  0
 12 46  1  0  0  0  0
 13 15  1  0  0  0  0
 13 47  1  0  0  0  0
 13 48  1  0  0  0  0
 14 21  1  0  0  0  0
 14 49  1  0  0  0  0
 14 50  1  0  0  0  0
 15 16  1  0  0  0  0
 15 51  1  0  0  0  0
 15 52  1  0  0  0  0
 16 17  1  0  0  0  0
 16 53  1  0  0  0  0
 16 54  1  0  0  0  0
 17 18  1  0  0  0  0
 17 55  1  0  0  0  0
 17 56  1  0  0  0  0
 18 19  1  0  0  0  0
 18 57  1  0  0  0  0
 18 58  1  0  0  0  0
 19 20  1  0  0  0  0
 19 59  1  0  0  0  0
 19 60  1  0  0  0  0
 20 22  1  0  0  0  0
 20 61  1  0  0  0  0
 20 62  1  0  0  0  0
 22 23  1  0  0  0  0
 22 63  1  0  0  0  0
 22 64  1  0  0  0  0
 23 24  1  0  0  0  0
 23 65  1  0  0  0  0
 23 66  1  0  0  0  0
 24 25  1  0  0  0  0
 24 67  1  0  0  0  0
 24 68  1  0  0  0  0
 25 26  1  0  0  0  0
 25 69  1  0  0  0  0
 25 70  1  0  0  0  0
 26 28  1  0  0  0  0
 26 71  1  0  0  0  0
 26 72  1  0  0  0  0
 27 76  1  0  0  0  0
 27 77  1  0  0  0  0
 27 78  1  0  0  0  0
 28 73  1  0  0  0  0
 28 74  1  0  0  0  0
 28 75  1  0  0  0  0
M  END
> <PUBCHEM_COMPOUND_CID>
526792
> <PUBCHEM_COMPOUND_CANONICALIZED>
1
> <PUBCHEM_CACTVS_COMPLEXITY>
388
> <PUBCHEM_CACTVS_HBOND_ACCEPTOR>
3
> <PUBCHEM_CACTVS_HBOND_DONOR>
0
> <PUBCHEM_CACTVS_ROTATABLE_BOND>
19
> <PUBCHEM_CACTVS_SUBSKEYS>
AAADcfB4MAgAAAAAAAAAAAAAAAAAAAAAAAAAAAAAAAAAAAAAAAAAGhAAAEAADBSgoAJCCAAABAEIAACQCAAAAAAAAAAAAAEAAAAAABYAAAAAAAAFIAAAAAGIyKCAAAAAAAAAAAAAAAAAAAAAAAAAAAAAAA==
> <PUBCHEM_IUPAC_OPENEYE_NAME>
methyl 3-[tert-butyl(dimethyl)silyl]oxyheptadecanoate
> <PUBCHEM_IUPAC_CAS_NAME>
3-[tert-butyl(dimethyl)silyl]oxyheptadecanoic acid methyl ester
> <PUBCHEM_IUPAC_NAME_MARKUP>
methyl 3-[<I>tert</I>-butyl(dimethyl)silyl]oxyheptadecanoate
> <PUBCHEM_IUPAC_NAME>
methyl 3-[tert-butyl(dimethyl)silyl]oxyheptadecanoate
> <PUBCHEM_IUPAC_SYSTEMATIC_NAME>
methyl 3-[tert-butyl(dimethyl)silyl]oxyheptadecanoate
> <PUBCHEM_IUPAC_TRADITIONAL_NAME>
3-[tert-butyl(dimethyl)silyl]oxyheptadecanoic acid methyl ester
> <PUBCHEM_IUPAC_INCHI>
InChI=1S/C24H50O3Si/c1-8-9-10-11-12-13-14-15-16-17-18-19-20-22(21-23(25)26-5)27-28(6,7)24(2,3)4/h22H,8-21H2,1-7H3
> <PUBCHEM_IUPAC_INCHIKEY>
OFIONSPXDHDDOA-UHFFFAOYSA-N
> <PUBCHEM_EXACT_MASS>
414.35292199
> <PUBCHEM_MOLECULAR_FORMULA>
C24H50O3Si
> <PUBCHEM_MOLECULAR_WEIGHT>
414.7
> <PUBCHEM_OPENEYE_CAN_SMILES>
CCCCCCCCCCCCCCC(CC(=O)OC)O[Si](C)(C)C(C)(C)C
> <PUBCHEM_OPENEYE_ISO_SMILES>
CCCCCCCCCCCCCCC(CC(=O)OC)O[Si](C)(C)C(C)(C)C
> <PUBCHEM_CACTVS_TPSA>
35.5
> <PUBCHEM_MONOISOTOPIC_WEIGHT>
414.35292199
> <PUBCHEM_TOTAL_CHARGE>
0
> <PUBCHEM_HEAVY_ATOM_COUNT>
28
> <PUBCHEM_ATOM_DEF_STEREO_COUNT>
0
> <PUBCHEM_ATOM_UDEF_STEREO_COUNT>
1
> <PUBCHEM_BOND_DEF_STEREO_COUNT>
0
> <PUBCHEM_BOND_UDEF_STEREO_COUNT>
0
> <PUBCHEM_ISOTOPIC_ATOM_COUNT>
0
> <PUBCHEM_COMPONENT_COUNT>
1
> <PUBCHEM_CACTVS_TAUTO_COUNT>
-1
> <PUBCHEM_COORDINATE_TYPE>
1
5
255
> <PUBCHEM_BONDANNOTATIONS>
6  12  3
$$$$
