526788
  -OEChem-10302200292D
 51 51  0     1  0  0  0  0  0999 V2000
    3.7601   -1.3742    0.0000 O   0  0  0  0  0  0  0  0  0  0  0  0
    2.0000   -1.0955    0.0000 O   0  0  0  0  0  0  0  0  0  0  0  0
    4.5691   -0.7864    0.0000 C   0  0  3  0  0  0  0  0  0  0  0  0
    5.5202   -1.0955    0.0000 C   0  0  0  0  0  0  0  0  0  0  0  0
    6.2633   -0.4263    0.0000 C   0  0  0  0  0  0  0  0  0  0  0  0
    7.2144   -0.7354    0.0000 C   0  0  0  0  0  0  0  0  0  0  0  0
    7.9575   -0.0662    0.0000 C   0  0  0  0  0  0  0  0  0  0  0  0
    8.9086   -0.3752    0.0000 C   0  0  0  0  0  0  0  0  0  0  0  0
    4.2601    0.1646    0.0000 C   0  0  0  0  0  0  0  0  0  0  0  0
    9.6517    0.2939    0.0000 C   0  0  0  0  0  0  0  0  0  0  0  0
   10.6028   -0.0151    0.0000 C   0  0  0  0  0  0  0  0  0  0  0  0
   11.3459    0.6540    0.0000 C   0  0  0  0  0  0  0  0  0  0  0  0
    3.2601    0.1646    0.0000 C   0  0  0  0  0  0  0  0  0  0  0  0
   12.2970    0.3450    0.0000 C   0  0  0  0  0  0  0  0  0  0  0  0
   13.0401    1.0141    0.0000 C   0  0  0  0  0  0  0  0  0  0  0  0
    2.9511   -0.7864    0.0000 C   0  0  0  0  0  0  0  0  0  0  0  0
   13.9912    0.7051    0.0000 C   0  0  0  0  0  0  0  0  0  0  0  0
   14.7343    1.3742    0.0000 C   0  0  0  0  0  0  0  0  0  0  0  0
   15.6854    1.0652    0.0000 C   0  0  0  0  0  0  0  0  0  0  0  0
    4.6661   -1.3988    0.0000 H   0  0  0  0  0  0  0  0  0  0  0  0
    5.2291   -1.6429    0.0000 H   0  0  0  0  0  0  0  0  0  0  0  0
    6.0087   -1.4772    0.0000 H   0  0  0  0  0  0  0  0  0  0  0  0
    6.5544    0.1211    0.0000 H   0  0  0  0  0  0  0  0  0  0  0  0
    5.7747   -0.0446    0.0000 H   0  0  0  0  0  0  0  0  0  0  0  0
    6.9233   -1.2828    0.0000 H   0  0  0  0  0  0  0  0  0  0  0  0
    7.7029   -1.1171    0.0000 H   0  0  0  0  0  0  0  0  0  0  0  0
    8.2486    0.4812    0.0000 H   0  0  0  0  0  0  0  0  0  0  0  0
    7.4689    0.3155    0.0000 H   0  0  0  0  0  0  0  0  0  0  0  0
    8.6175   -0.9227    0.0000 H   0  0  0  0  0  0  0  0  0  0  0  0
    9.3971   -0.7569    0.0000 H   0  0  0  0  0  0  0  0  0  0  0  0
    4.8665    0.2935    0.0000 H   0  0  0  0  0  0  0  0  0  0  0  0
    4.1953    0.7812    0.0000 H   0  0  0  0  0  0  0  0  0  0  0  0
    9.9428    0.8413    0.0000 H   0  0  0  0  0  0  0  0  0  0  0  0
    9.1631    0.6756    0.0000 H   0  0  0  0  0  0  0  0  0  0  0  0
   10.3117   -0.5626    0.0000 H   0  0  0  0  0  0  0  0  0  0  0  0
   11.0913   -0.3968    0.0000 H   0  0  0  0  0  0  0  0  0  0  0  0
   11.6370    1.2014    0.0000 H   0  0  0  0  0  0  0  0  0  0  0  0
   10.8573    1.0357    0.0000 H   0  0  0  0  0  0  0  0  0  0  0  0
    3.3249    0.7812    0.0000 H   0  0  0  0  0  0  0  0  0  0  0  0
    2.6536    0.2935    0.0000 H   0  0  0  0  0  0  0  0  0  0  0  0
   12.0059   -0.2024    0.0000 H   0  0  0  0  0  0  0  0  0  0  0  0
   12.7855   -0.0367    0.0000 H   0  0  0  0  0  0  0  0  0  0  0  0
   13.3312    1.5616    0.0000 H   0  0  0  0  0  0  0  0  0  0  0  0
   12.5515    1.3958    0.0000 H   0  0  0  0  0  0  0  0  0  0  0  0
   13.7001    0.1577    0.0000 H   0  0  0  0  0  0  0  0  0  0  0  0
   14.4797    0.3234    0.0000 H   0  0  0  0  0  0  0  0  0  0  0  0
   15.0254    1.9217    0.0000 H   0  0  0  0  0  0  0  0  0  0  0  0
   14.2457    1.7559    0.0000 H   0  0  0  0  0  0  0  0  0  0  0  0
   15.4938    0.4756    0.0000 H   0  0  0  0  0  0  0  0  0  0  0  0
   16.2750    0.8736    0.0000 H   0  0  0  0  0  0  0  0  0  0  0  0
   15.8769    1.6549    0.0000 H   0  0  0  0  0  0  0  0  0  0  0  0
  1  3  1  0  0  0  0
  1 16  1  0  0  0  0
  2 16  2  0  0  0  0
  3  4  1  0  0  0  0
  3  9  1  0  0  0  0
  3 20  1  0  0  0  0
  4  5  1  0  0  0  0
  4 21  1  0  0  0  0
  4 22  1  0  0  0  0
  5  6  1  0  0  0  0
  5 23  1  0  0  0  0
  5 24  1  0  0  0  0
  6  7  1  0  0  0  0
  6 25  1  0  0  0  0
  6 26  1  0  0  0  0
  7  8  1  0  0  0  0
  7 27  1  0  0  0  0
  7 28  1  0  0  0  0
  8 10  1  0  0  0  0
  8 29  1  0  0  0  0
  8 30  1  0  0  0  0
  9 13  1  0  0  0  0
  9 31  1  0  0  0  0
  9 32  1  0  0  0  0
 10 11  1  0  0  0  0
 10 33  1  0  0  0  0
 10 34  1  0  0  0  0
 11 12  1  0  0  0  0
 11 35  1  0  0  0  0
 11 36  1  0  0  0  0
 12 14  1  0  0  0  0
 12 37  1  0  0  0  0
 12 38  1  0  0  0  0
 13 16  1  0  0  0  0
 13 39  1  0  0  0  0
 13 40  1  0  0  0  0
 14 15  1  0  0  0  0
 14 41  1  0  0  0  0
 14 42  1  0  0  0  0
 15 17  1  0  0  0  0
 15 43  1  0  0  0  0
 15 44  1  0  0  0  0
 17 18  1  0  0  0  0
 17 45  1  0  0  0  0
 17 46  1  0  0  0  0
 18 19  1  0  0  0  0
 18 47  1  0  0  0  0
 18 48  1  0  0  0  0
 19 49  1  0  0  0  0
 19 50  1  0  0  0  0
 19 51  1  0  0  0  0
M  END
> <PUBCHEM_COMPOUND_CID>
526788
> <PUBCHEM_COMPOUND_CANONICALIZED>
1
> <PUBCHEM_CACTVS_COMPLEXITY>
225
> <PUBCHEM_CACTVS_HBOND_ACCEPTOR>
2
> <PUBCHEM_CACTVS_HBOND_DONOR>
0
> <PUBCHEM_CACTVS_ROTATABLE_BOND>
12
> <PUBCHEM_CACTVS_SUBSKEYS>
AAADcfB4MAAAAAAAAAAAAAAAAAAAASAAAAAAAAAAAAAAAAAAAAAAGgAAAAAACBSggAICCAAABAAIAACQCAAAAAAAAAAAAAEAAAAAABIAAAACAAAEAAAAAAGKyKCAAAAAAAAAAAAAAAAAAAAAAAAAAAAAAA==
> <PUBCHEM_IUPAC_OPENEYE_NAME>
5-tridecyltetrahydrofuran-2-one
> <PUBCHEM_IUPAC_CAS_NAME>
5-tridecyl-2-oxolanone
> <PUBCHEM_IUPAC_NAME_MARKUP>
5-tridecyloxolan-2-one
> <PUBCHEM_IUPAC_NAME>
5-tridecyloxolan-2-one
> <PUBCHEM_IUPAC_SYSTEMATIC_NAME>
5-tridecyloxolan-2-one
> <PUBCHEM_IUPAC_TRADITIONAL_NAME>
5-tridecyltetrahydrofuran-2-one
> <PUBCHEM_IUPAC_INCHI>
InChI=1S/C17H32O2/c1-2-3-4-5-6-7-8-9-10-11-12-13-16-14-15-17(18)19-16/h16H,2-15H2,1H3
> <PUBCHEM_IUPAC_INCHIKEY>
ZZKHCCCWEVWBPD-UHFFFAOYSA-N
> <PUBCHEM_XLOGP3>
6.5
> <PUBCHEM_EXACT_MASS>
268.240230259
> <PUBCHEM_MOLECULAR_FORMULA>
C17H32O2
> <PUBCHEM_MOLECULAR_WEIGHT>
268.4
> <PUBCHEM_OPENEYE_CAN_SMILES>
CCCCCCCCCCCCCC1CCC(=O)O1
> <PUBCHEM_OPENEYE_ISO_SMILES>
CCCCCCCCCCCCCC1CCC(=O)O1
> <PUBCHEM_CACTVS_TPSA>
26.3
> <PUBCHEM_MONOISOTOPIC_WEIGHT>
268.240230259
> <PUBCHEM_TOTAL_CHARGE>
0
> <PUBCHEM_HEAVY_ATOM_COUNT>
19
> <PUBCHEM_ATOM_DEF_STEREO_COUNT>
0
> <PUBCHEM_ATOM_UDEF_STEREO_COUNT>
1
> <PUBCHEM_BOND_DEF_STEREO_COUNT>
0
> <PUBCHEM_BOND_UDEF_STEREO_COUNT>
0
> <PUBCHEM_ISOTOPIC_ATOM_COUNT>
0
> <PUBCHEM_COMPONENT_COUNT>
1
> <PUBCHEM_CACTVS_TAUTO_COUNT>
-1
> <PUBCHEM_COORDINATE_TYPE>
1
5
255
> <PUBCHEM_BONDANNOTATIONS>
3  4  3
$$$$
