526771
  -OEChem-10302200292D
 78 77  0     1  0  0  0  0  0999 V2000
   11.5263   -2.7500    0.0000 Si  0  0  0  0  0  0  0  0  0  0  0  0
   10.6603   -3.2500    0.0000 O   0  0  0  0  0  0  0  0  0  0  0  0
    2.8660   -2.7500    0.0000 O   0  0  0  0  0  0  0  0  0  0  0  0
    3.7320   -4.2500    0.0000 O   0  0  0  0  0  0  0  0  0  0  0  0
   12.3923   -2.2500    0.0000 C   0  0  0  0  0  0  0  0  0  0  0  0
    9.7942   -2.7500    0.0000 C   0  0  3  0  0  0  0  0  0  0  0  0
    9.7942   -1.7500    0.0000 C   0  0  0  0  0  0  0  0  0  0  0  0
    8.9282   -3.2500    0.0000 C   0  0  0  0  0  0  0  0  0  0  0  0
   11.0263   -1.8840    0.0000 C   0  0  0  0  0  0  0  0  0  0  0  0
   12.0263   -3.6160    0.0000 C   0  0  0  0  0  0  0  0  0  0  0  0
   13.2583   -1.7500    0.0000 C   0  0  0  0  0  0  0  0  0  0  0  0
   11.8923   -1.3840    0.0000 C   0  0  0  0  0  0  0  0  0  0  0  0
   12.8923   -3.1160    0.0000 C   0  0  0  0  0  0  0  0  0  0  0  0
    8.9282   -1.2500    0.0000 C   0  0  0  0  0  0  0  0  0  0  0  0
    8.0622   -2.7500    0.0000 C   0  0  0  0  0  0  0  0  0  0  0  0
    8.9282   -0.2500    0.0000 C   0  0  0  0  0  0  0  0  0  0  0  0
    7.1962   -3.2500    0.0000 C   0  0  0  0  0  0  0  0  0  0  0  0
    8.0622    0.2500    0.0000 C   0  0  0  0  0  0  0  0  0  0  0  0
    6.3301   -2.7500    0.0000 C   0  0  0  0  0  0  0  0  0  0  0  0
    8.0622    1.2500    0.0000 C   0  0  0  0  0  0  0  0  0  0  0  0
    7.1962    1.7500    0.0000 C   0  0  0  0  0  0  0  0  0  0  0  0
    5.4641   -3.2500    0.0000 C   0  0  0  0  0  0  0  0  0  0  0  0
    7.1962    2.7500    0.0000 C   0  0  0  0  0  0  0  0  0  0  0  0
    4.5981   -2.7500    0.0000 C   0  0  0  0  0  0  0  0  0  0  0  0
    6.3301    3.2500    0.0000 C   0  0  0  0  0  0  0  0  0  0  0  0
    3.7320   -3.2500    0.0000 C   0  0  0  0  0  0  0  0  0  0  0  0
    6.3301    4.2500    0.0000 C   0  0  0  0  0  0  0  0  0  0  0  0
    2.0000   -3.2500    0.0000 C   0  0  0  0  0  0  0  0  0  0  0  0
    9.7942   -3.3700    0.0000 H   0  0  0  0  0  0  0  0  0  0  0  0
   10.4048   -1.8577    0.0000 H   0  0  0  0  0  0  0  0  0  0  0  0
   10.0063   -1.1674    0.0000 H   0  0  0  0  0  0  0  0  0  0  0  0
    8.5297   -3.7250    0.0000 H   0  0  0  0  0  0  0  0  0  0  0  0
    9.3267   -3.7250    0.0000 H   0  0  0  0  0  0  0  0  0  0  0  0
   11.5632   -1.5740    0.0000 H   0  0  0  0  0  0  0  0  0  0  0  0
   10.7163   -1.3470    0.0000 H   0  0  0  0  0  0  0  0  0  0  0  0
   10.4893   -2.1940    0.0000 H   0  0  0  0  0  0  0  0  0  0  0  0
   11.4893   -3.9260    0.0000 H   0  0  0  0  0  0  0  0  0  0  0  0
   12.3363   -4.1530    0.0000 H   0  0  0  0  0  0  0  0  0  0  0  0
   12.5632   -3.3060    0.0000 H   0  0  0  0  0  0  0  0  0  0  0  0
   13.5683   -2.2869    0.0000 H   0  0  0  0  0  0  0  0  0  0  0  0
   13.7953   -1.4400    0.0000 H   0  0  0  0  0  0  0  0  0  0  0  0
   12.9483   -1.2131    0.0000 H   0  0  0  0  0  0  0  0  0  0  0  0
   12.4292   -1.0740    0.0000 H   0  0  0  0  0  0  0  0  0  0  0  0
   11.5823   -0.8470    0.0000 H   0  0  0  0  0  0  0  0  0  0  0  0
   11.3554   -1.6940    0.0000 H   0  0  0  0  0  0  0  0  0  0  0  0
   12.3554   -3.4260    0.0000 H   0  0  0  0  0  0  0  0  0  0  0  0
   13.2023   -3.6530    0.0000 H   0  0  0  0  0  0  0  0  0  0  0  0
   13.4292   -2.8060    0.0000 H   0  0  0  0  0  0  0  0  0  0  0  0
    8.3176   -1.1423    0.0000 H   0  0  0  0  0  0  0  0  0  0  0  0
    8.7162   -1.8326    0.0000 H   0  0  0  0  0  0  0  0  0  0  0  0
    8.4607   -2.2750    0.0000 H   0  0  0  0  0  0  0  0  0  0  0  0
    7.6636   -2.2750    0.0000 H   0  0  0  0  0  0  0  0  0  0  0  0
    9.5388   -0.3577    0.0000 H   0  0  0  0  0  0  0  0  0  0  0  0
    9.1403    0.3326    0.0000 H   0  0  0  0  0  0  0  0  0  0  0  0
    6.7976   -3.7250    0.0000 H   0  0  0  0  0  0  0  0  0  0  0  0
    7.5947   -3.7250    0.0000 H   0  0  0  0  0  0  0  0  0  0  0  0
    7.4516    0.3577    0.0000 H   0  0  0  0  0  0  0  0  0  0  0  0
    7.8501   -0.3326    0.0000 H   0  0  0  0  0  0  0  0  0  0  0  0
    6.7287   -2.2750    0.0000 H   0  0  0  0  0  0  0  0  0  0  0  0
    5.9316   -2.2750    0.0000 H   0  0  0  0  0  0  0  0  0  0  0  0
    8.6728    1.1423    0.0000 H   0  0  0  0  0  0  0  0  0  0  0  0
    8.2742    1.8326    0.0000 H   0  0  0  0  0  0  0  0  0  0  0  0
    6.5856    1.8577    0.0000 H   0  0  0  0  0  0  0  0  0  0  0  0
    6.9841    1.1674    0.0000 H   0  0  0  0  0  0  0  0  0  0  0  0
    5.0656   -3.7250    0.0000 H   0  0  0  0  0  0  0  0  0  0  0  0
    5.8626   -3.7250    0.0000 H   0  0  0  0  0  0  0  0  0  0  0  0
    7.8067    2.6423    0.0000 H   0  0  0  0  0  0  0  0  0  0  0  0
    7.4082    3.3326    0.0000 H   0  0  0  0  0  0  0  0  0  0  0  0
    4.9966   -2.2750    0.0000 H   0  0  0  0  0  0  0  0  0  0  0  0
    4.1996   -2.2750    0.0000 H   0  0  0  0  0  0  0  0  0  0  0  0
    5.7196    3.3577    0.0000 H   0  0  0  0  0  0  0  0  0  0  0  0
    6.1181    2.6674    0.0000 H   0  0  0  0  0  0  0  0  0  0  0  0
    6.9501    4.2500    0.0000 H   0  0  0  0  0  0  0  0  0  0  0  0
    6.3301    4.8700    0.0000 H   0  0  0  0  0  0  0  0  0  0  0  0
    5.7101    4.2500    0.0000 H   0  0  0  0  0  0  0  0  0  0  0  0
    1.6900   -2.7131    0.0000 H   0  0  0  0  0  0  0  0  0  0  0  0
    1.4631   -3.5600    0.0000 H   0  0  0  0  0  0  0  0  0  0  0  0
    2.3100   -3.7869    0.0000 H   0  0  0  0  0  0  0  0  0  0  0  0
  1  2  1  0  0  0  0
  1  5  1  0  0  0  0
  1  9  1  0  0  0  0
  1 10  1  0  0  0  0
  2  6  1  0  0  0  0
  3 26  1  0  0  0  0
  3 28  1  0  0  0  0
  4 26  2  0  0  0  0
  5 11  1  0  0  0  0
  5 12  1  0  0  0  0
  5 13  1  0  0  0  0
  6  7  1  0  0  0  0
  6  8  1  0  0  0  0
  6 29  1  0  0  0  0
  7 14  1  0  0  0  0
  7 30  1  0  0  0  0
  7 31  1  0  0  0  0
  8 15  1  0  0  0  0
  8 32  1  0  0  0  0
  8 33  1  0  0  0  0
  9 34  1  0  0  0  0
  9 35  1  0  0  0  0
  9 36  1  0  0  0  0
 10 37  1  0  0  0  0
 10 38  1  0  0  0  0
 10 39  1  0  0  0  0
 11 40  1  0  0  0  0
 11 41  1  0  0  0  0
 11 42  1  0  0  0  0
 12 43  1  0  0  0  0
 12 44  1  0  0  0  0
 12 45  1  0  0  0  0
 13 46  1  0  0  0  0
 13 47  1  0  0  0  0
 13 48  1  0  0  0  0
 14 16  1  0  0  0  0
 14 49  1  0  0  0  0
 14 50  1  0  0  0  0
 15 17  1  0  0  0  0
 15 51  1  0  0  0  0
 15 52  1  0  0  0  0
 16 18  1  0  0  0  0
 16 53  1  0  0  0  0
 16 54  1  0  0  0  0
 17 19  1  0  0  0  0
 17 55  1  0  0  0  0
 17 56  1  0  0  0  0
 18 20  1  0  0  0  0
 18 57  1  0  0  0  0
 18 58  1  0  0  0  0
 19 22  1  0  0  0  0
 19 59  1  0  0  0  0
 19 60  1  0  0  0  0
 20 21  1  0  0  0  0
 20 61  1  0  0  0  0
 20 62  1  0  0  0  0
 21 23  1  0  0  0  0
 21 63  1  0  0  0  0
 21 64  1  0  0  0  0
 22 24  1  0  0  0  0
 22 65  1  0  0  0  0
 22 66  1  0  0  0  0
 23 25  1  0  0  0  0
 23 67  1  0  0  0  0
 23 68  1  0  0  0  0
 24 26  1  0  0  0  0
 24 69  1  0  0  0  0
 24 70  1  0  0  0  0
 25 27  1  0  0  0  0
 25 71  1  0  0  0  0
 25 72  1  0  0  0  0
 27 73  1  0  0  0  0
 27 74  1  0  0  0  0
 27 75  1  0  0  0  0
 28 76  1  0  0  0  0
 28 77  1  0  0  0  0
 28 78  1  0  0  0  0
M  END
> <PUBCHEM_COMPOUND_CID>
526771
> <PUBCHEM_COMPOUND_CANONICALIZED>
1
> <PUBCHEM_CACTVS_COMPLEXITY>
388
> <PUBCHEM_CACTVS_HBOND_ACCEPTOR>
3
> <PUBCHEM_CACTVS_HBOND_DONOR>
0
> <PUBCHEM_CACTVS_ROTATABLE_BOND>
19
> <PUBCHEM_CACTVS_SUBSKEYS>
AAADcfB4MAgAAAAAAAAAAAAAAAAAAAAAAAAAAAAAAAAAAAAAAAAAGhAAAEAADBSgoAJCCAAABAEIAACQCAAAAAAAAAAAAAEAAAAAABIAAAAAAAAEAAAAAAGIyKCAAAAAAAAAAAAAAAAAAAAAAAAAAAAAAA==
> <PUBCHEM_IUPAC_OPENEYE_NAME>
methyl 8-[tert-butyl(dimethyl)silyl]oxyheptadecanoate
> <PUBCHEM_IUPAC_CAS_NAME>
8-[tert-butyl(dimethyl)silyl]oxyheptadecanoic acid methyl ester
> <PUBCHEM_IUPAC_NAME_MARKUP>
methyl 8-[<I>tert</I>-butyl(dimethyl)silyl]oxyheptadecanoate
> <PUBCHEM_IUPAC_NAME>
methyl 8-[tert-butyl(dimethyl)silyl]oxyheptadecanoate
> <PUBCHEM_IUPAC_SYSTEMATIC_NAME>
methyl 8-[tert-butyl(dimethyl)silyl]oxyheptadecanoate
> <PUBCHEM_IUPAC_TRADITIONAL_NAME>
8-[tert-butyl(dimethyl)silyl]oxyheptadecanoic acid methyl ester
> <PUBCHEM_IUPAC_INCHI>
InChI=1S/C24H50O3Si/c1-8-9-10-11-12-13-16-19-22(27-28(6,7)24(2,3)4)20-17-14-15-18-21-23(25)26-5/h22H,8-21H2,1-7H3
> <PUBCHEM_IUPAC_INCHIKEY>
QQLZIHGHJLTFNR-UHFFFAOYSA-N
> <PUBCHEM_EXACT_MASS>
414.35292199
> <PUBCHEM_MOLECULAR_FORMULA>
C24H50O3Si
> <PUBCHEM_MOLECULAR_WEIGHT>
414.7
> <PUBCHEM_OPENEYE_CAN_SMILES>
CCCCCCCCCC(CCCCCCC(=O)OC)O[Si](C)(C)C(C)(C)C
> <PUBCHEM_OPENEYE_ISO_SMILES>
CCCCCCCCCC(CCCCCCC(=O)OC)O[Si](C)(C)C(C)(C)C
> <PUBCHEM_CACTVS_TPSA>
35.5
> <PUBCHEM_MONOISOTOPIC_WEIGHT>
414.35292199
> <PUBCHEM_TOTAL_CHARGE>
0
> <PUBCHEM_HEAVY_ATOM_COUNT>
28
> <PUBCHEM_ATOM_DEF_STEREO_COUNT>
0
> <PUBCHEM_ATOM_UDEF_STEREO_COUNT>
1
> <PUBCHEM_BOND_DEF_STEREO_COUNT>
0
> <PUBCHEM_BOND_UDEF_STEREO_COUNT>
0
> <PUBCHEM_ISOTOPIC_ATOM_COUNT>
0
> <PUBCHEM_COMPONENT_COUNT>
1
> <PUBCHEM_CACTVS_TAUTO_COUNT>
-1
> <PUBCHEM_COORDINATE_TYPE>
1
5
255
> <PUBCHEM_BONDANNOTATIONS>
6  7  3
$$$$
