526790
  -OEChem-10302200292D
 75 74  0     1  0  0  0  0  0999 V2000
    8.9282   -4.5670    0.0000 Si  0  0  0  0  0  0  0  0  0  0  0  0
    8.0622   -5.0670    0.0000 O   0  0  0  0  0  0  0  0  0  0  0  0
    4.5981   -5.0670    0.0000 O   0  0  0  0  0  0  0  0  0  0  0  0
    5.4641   -3.5670    0.0000 O   0  0  0  0  0  0  0  0  0  0  0  0
    9.7942   -4.0670    0.0000 C   0  0  0  0  0  0  0  0  0  0  0  0
    7.1962   -4.5670    0.0000 C   0  0  3  0  0  0  0  0  0  0  0  0
    8.4282   -3.7010    0.0000 C   0  0  0  0  0  0  0  0  0  0  0  0
    9.4282   -5.4330    0.0000 C   0  0  0  0  0  0  0  0  0  0  0  0
   10.6603   -3.5670    0.0000 C   0  0  0  0  0  0  0  0  0  0  0  0
    9.2942   -3.2010    0.0000 C   0  0  0  0  0  0  0  0  0  0  0  0
   10.2942   -4.9330    0.0000 C   0  0  0  0  0  0  0  0  0  0  0  0
    7.1962   -3.5670    0.0000 C   0  0  0  0  0  0  0  0  0  0  0  0
    6.3301   -3.0670    0.0000 C   0  0  0  0  0  0  0  0  0  0  0  0
    6.3301   -5.0670    0.0000 C   0  0  0  0  0  0  0  0  0  0  0  0
    6.3301   -2.0670    0.0000 C   0  0  0  0  0  0  0  0  0  0  0  0
    5.4641   -1.5670    0.0000 C   0  0  0  0  0  0  0  0  0  0  0  0
    5.4641   -0.5670    0.0000 C   0  0  0  0  0  0  0  0  0  0  0  0
    4.5981   -0.0670    0.0000 C   0  0  0  0  0  0  0  0  0  0  0  0
    4.5981    0.9330    0.0000 C   0  0  0  0  0  0  0  0  0  0  0  0
    3.7320    1.4330    0.0000 C   0  0  0  0  0  0  0  0  0  0  0  0
    5.4641   -4.5670    0.0000 C   0  0  0  0  0  0  0  0  0  0  0  0
    3.7320    2.4330    0.0000 C   0  0  0  0  0  0  0  0  0  0  0  0
    2.8660    2.9330    0.0000 C   0  0  0  0  0  0  0  0  0  0  0  0
    2.8660    3.9330    0.0000 C   0  0  0  0  0  0  0  0  0  0  0  0
    2.0000    4.4330    0.0000 C   0  0  0  0  0  0  0  0  0  0  0  0
    2.0000    5.4330    0.0000 C   0  0  0  0  0  0  0  0  0  0  0  0
    3.7320   -4.5670    0.0000 C   0  0  0  0  0  0  0  0  0  0  0  0
    7.7331   -4.2570    0.0000 H   0  0  0  0  0  0  0  0  0  0  0  0
    8.9651   -3.3910    0.0000 H   0  0  0  0  0  0  0  0  0  0  0  0
    8.1182   -3.1640    0.0000 H   0  0  0  0  0  0  0  0  0  0  0  0
    7.8913   -4.0110    0.0000 H   0  0  0  0  0  0  0  0  0  0  0  0
    8.8913   -5.7430    0.0000 H   0  0  0  0  0  0  0  0  0  0  0  0
    9.7382   -5.9700    0.0000 H   0  0  0  0  0  0  0  0  0  0  0  0
    9.9651   -5.1230    0.0000 H   0  0  0  0  0  0  0  0  0  0  0  0
   10.9703   -4.1039    0.0000 H   0  0  0  0  0  0  0  0  0  0  0  0
   11.1972   -3.2570    0.0000 H   0  0  0  0  0  0  0  0  0  0  0  0
   10.3503   -3.0300    0.0000 H   0  0  0  0  0  0  0  0  0  0  0  0
    9.8312   -2.8910    0.0000 H   0  0  0  0  0  0  0  0  0  0  0  0
    8.9842   -2.6640    0.0000 H   0  0  0  0  0  0  0  0  0  0  0  0
    8.7573   -3.5110    0.0000 H   0  0  0  0  0  0  0  0  0  0  0  0
    9.7573   -5.2430    0.0000 H   0  0  0  0  0  0  0  0  0  0  0  0
   10.6042   -5.4700    0.0000 H   0  0  0  0  0  0  0  0  0  0  0  0
   10.8312   -4.6230    0.0000 H   0  0  0  0  0  0  0  0  0  0  0  0
    7.8067   -3.6746    0.0000 H   0  0  0  0  0  0  0  0  0  0  0  0
    7.4082   -2.9844    0.0000 H   0  0  0  0  0  0  0  0  0  0  0  0
    5.7196   -2.9593    0.0000 H   0  0  0  0  0  0  0  0  0  0  0  0
    6.1181   -3.6496    0.0000 H   0  0  0  0  0  0  0  0  0  0  0  0
    5.9316   -5.5419    0.0000 H   0  0  0  0  0  0  0  0  0  0  0  0
    6.7287   -5.5419    0.0000 H   0  0  0  0  0  0  0  0  0  0  0  0
    6.9407   -2.1747    0.0000 H   0  0  0  0  0  0  0  0  0  0  0  0
    6.5422   -1.4844    0.0000 H   0  0  0  0  0  0  0  0  0  0  0  0
    4.8535   -1.4593    0.0000 H   0  0  0  0  0  0  0  0  0  0  0  0
    5.2520   -2.1496    0.0000 H   0  0  0  0  0  0  0  0  0  0  0  0
    6.0747   -0.6746    0.0000 H   0  0  0  0  0  0  0  0  0  0  0  0
    5.6762    0.0156    0.0000 H   0  0  0  0  0  0  0  0  0  0  0  0
    3.9875    0.0407    0.0000 H   0  0  0  0  0  0  0  0  0  0  0  0
    4.3860   -0.6496    0.0000 H   0  0  0  0  0  0  0  0  0  0  0  0
    5.2087    0.8254    0.0000 H   0  0  0  0  0  0  0  0  0  0  0  0
    4.8101    1.5156    0.0000 H   0  0  0  0  0  0  0  0  0  0  0  0
    3.1215    1.5407    0.0000 H   0  0  0  0  0  0  0  0  0  0  0  0
    3.5200    0.8504    0.0000 H   0  0  0  0  0  0  0  0  0  0  0  0
    4.3426    2.3253    0.0000 H   0  0  0  0  0  0  0  0  0  0  0  0
    3.9441    3.0156    0.0000 H   0  0  0  0  0  0  0  0  0  0  0  0
    2.2554    3.0407    0.0000 H   0  0  0  0  0  0  0  0  0  0  0  0
    2.6540    2.3504    0.0000 H   0  0  0  0  0  0  0  0  0  0  0  0
    3.4766    3.8254    0.0000 H   0  0  0  0  0  0  0  0  0  0  0  0
    3.0781    4.5156    0.0000 H   0  0  0  0  0  0  0  0  0  0  0  0
    1.3894    4.5407    0.0000 H   0  0  0  0  0  0  0  0  0  0  0  0
    1.7880    3.8504    0.0000 H   0  0  0  0  0  0  0  0  0  0  0  0
    2.6200    5.4330    0.0000 H   0  0  0  0  0  0  0  0  0  0  0  0
    2.0000    6.0530    0.0000 H   0  0  0  0  0  0  0  0  0  0  0  0
    1.3800    5.4330    0.0000 H   0  0  0  0  0  0  0  0  0  0  0  0
    4.0420   -4.0300    0.0000 H   0  0  0  0  0  0  0  0  0  0  0  0
    3.1951   -4.2570    0.0000 H   0  0  0  0  0  0  0  0  0  0  0  0
    3.4220   -5.1039    0.0000 H   0  0  0  0  0  0  0  0  0  0  0  0
  1  2  1  0  0  0  0
  1  5  1  0  0  0  0
  1  7  1  0  0  0  0
  1  8  1  0  0  0  0
  2  6  1  0  0  0  0
  3 21  1  0  0  0  0
  3 27  1  0  0  0  0
  4 21  2  0  0  0  0
  5  9  1  0  0  0  0
  5 10  1  0  0  0  0
  5 11  1  0  0  0  0
  6 12  1  0  0  0  0
  6 14  1  0  0  0  0
  6 28  1  0  0  0  0
  7 29  1  0  0  0  0
  7 30  1  0  0  0  0
  7 31  1  0  0  0  0
  8 32  1  0  0  0  0
  8 33  1  0  0  0  0
  8 34  1  0  0  0  0
  9 35  1  0  0  0  0
  9 36  1  0  0  0  0
  9 37  1  0  0  0  0
 10 38  1  0  0  0  0
 10 39  1  0  0  0  0
 10 40  1  0  0  0  0
 11 41  1  0  0  0  0
 11 42  1  0  0  0  0
 11 43  1  0  0  0  0
 12 13  1  0  0  0  0
 12 44  1  0  0  0  0
 12 45  1  0  0  0  0
 13 15  1  0  0  0  0
 13 46  1  0  0  0  0
 13 47  1  0  0  0  0
 14 21  1  0  0  0  0
 14 48  1  0  0  0  0
 14 49  1  0  0  0  0
 15 16  1  0  0  0  0
 15 50  1  0  0  0  0
 15 51  1  0  0  0  0
 16 17  1  0  0  0  0
 16 52  1  0  0  0  0
 16 53  1  0  0  0  0
 17 18  1  0  0  0  0
 17 54  1  0  0  0  0
 17 55  1  0  0  0  0
 18 19  1  0  0  0  0
 18 56  1  0  0  0  0
 18 57  1  0  0  0  0
 19 20  1  0  0  0  0
 19 58  1  0  0  0  0
 19 59  1  0  0  0  0
 20 22  1  0  0  0  0
 20 60  1  0  0  0  0
 20 61  1  0  0  0  0
 22 23  1  0  0  0  0
 22 62  1  0  0  0  0
 22 63  1  0  0  0  0
 23 24  1  0  0  0  0
 23 64  1  0  0  0  0
 23 65  1  0  0  0  0
 24 25  1  0  0  0  0
 24 66  1  0  0  0  0
 24 67  1  0  0  0  0
 25 26  1  0  0  0  0
 25 68  1  0  0  0  0
 25 69  1  0  0  0  0
 26 70  1  0  0  0  0
 26 71  1  0  0  0  0
 26 72  1  0  0  0  0
 27 73  1  0  0  0  0
 27 74  1  0  0  0  0
 27 75  1  0  0  0  0
M  END
> <PUBCHEM_COMPOUND_CID>
526790
> <PUBCHEM_COMPOUND_CANONICALIZED>
1
> <PUBCHEM_CACTVS_COMPLEXITY>
374
> <PUBCHEM_CACTVS_HBOND_ACCEPTOR>
3
> <PUBCHEM_CACTVS_HBOND_DONOR>
0
> <PUBCHEM_CACTVS_ROTATABLE_BOND>
18
> <PUBCHEM_CACTVS_SUBSKEYS>
AAADcfB4MAgAAAAAAAAAAAAAAAAAAAAAAAAAAAAAAAAAAAAAAAAAGhAAAEAADBSgoAJCCAAABAEIAACQCAAAAAAAAAAAAAEAAAAAABYAAAAAAAAFIAAAAAGIyKCAAAAAAAAAAAAAAAAAAAAAAAAAAAAAAA==
> <PUBCHEM_IUPAC_OPENEYE_NAME>
methyl 3-[tert-butyl(dimethyl)silyl]oxyhexadecanoate
> <PUBCHEM_IUPAC_CAS_NAME>
3-[tert-butyl(dimethyl)silyl]oxyhexadecanoic acid methyl ester
> <PUBCHEM_IUPAC_NAME_MARKUP>
methyl 3-[<I>tert</I>-butyl(dimethyl)silyl]oxyhexadecanoate
> <PUBCHEM_IUPAC_NAME>
methyl 3-[tert-butyl(dimethyl)silyl]oxyhexadecanoate
> <PUBCHEM_IUPAC_SYSTEMATIC_NAME>
methyl 3-[tert-butyl(dimethyl)silyl]oxyhexadecanoate
> <PUBCHEM_IUPAC_TRADITIONAL_NAME>
3-[tert-butyl(dimethyl)silyl]oxypalmitic acid methyl ester
> <PUBCHEM_IUPAC_INCHI>
InChI=1S/C23H48O3Si/c1-8-9-10-11-12-13-14-15-16-17-18-19-21(20-22(24)25-5)26-27(6,7)23(2,3)4/h21H,8-20H2,1-7H3
> <PUBCHEM_IUPAC_INCHIKEY>
YJDWDOIHWAMKFQ-UHFFFAOYSA-N
> <PUBCHEM_EXACT_MASS>
400.33727192
> <PUBCHEM_MOLECULAR_FORMULA>
C23H48O3Si
> <PUBCHEM_MOLECULAR_WEIGHT>
400.7
> <PUBCHEM_OPENEYE_CAN_SMILES>
CCCCCCCCCCCCCC(CC(=O)OC)O[Si](C)(C)C(C)(C)C
> <PUBCHEM_OPENEYE_ISO_SMILES>
CCCCCCCCCCCCCC(CC(=O)OC)O[Si](C)(C)C(C)(C)C
> <PUBCHEM_CACTVS_TPSA>
35.5
> <PUBCHEM_MONOISOTOPIC_WEIGHT>
400.33727192
> <PUBCHEM_TOTAL_CHARGE>
0
> <PUBCHEM_HEAVY_ATOM_COUNT>
27
> <PUBCHEM_ATOM_DEF_STEREO_COUNT>
0
> <PUBCHEM_ATOM_UDEF_STEREO_COUNT>
1
> <PUBCHEM_BOND_DEF_STEREO_COUNT>
0
> <PUBCHEM_BOND_UDEF_STEREO_COUNT>
0
> <PUBCHEM_ISOTOPIC_ATOM_COUNT>
0
> <PUBCHEM_COMPONENT_COUNT>
1
> <PUBCHEM_CACTVS_TAUTO_COUNT>
-1
> <PUBCHEM_COORDINATE_TYPE>
1
5
255
> <PUBCHEM_BONDANNOTATIONS>
6  12  3
$$$$
