526794
  -OEChem-10302200292D
 75 74  0     1  0  0  0  0  0999 V2000
    9.7942   -4.5000    0.0000 Si  0  0  0  0  0  0  0  0  0  0  0  0
    8.9282   -5.0000    0.0000 O   0  0  0  0  0  0  0  0  0  0  0  0
    6.3301   -4.5000    0.0000 O   0  0  0  0  0  0  0  0  0  0  0  0
    7.1962   -6.0000    0.0000 O   0  0  0  0  0  0  0  0  0  0  0  0
   10.6603   -4.0000    0.0000 C   0  0  0  0  0  0  0  0  0  0  0  0
   11.5263   -3.5000    0.0000 C   0  0  0  0  0  0  0  0  0  0  0  0
   10.1603   -3.1340    0.0000 C   0  0  0  0  0  0  0  0  0  0  0  0
   11.1603   -4.8660    0.0000 C   0  0  0  0  0  0  0  0  0  0  0  0
    9.2942   -3.6340    0.0000 C   0  0  0  0  0  0  0  0  0  0  0  0
   10.2942   -5.3660    0.0000 C   0  0  0  0  0  0  0  0  0  0  0  0
    8.0622   -4.5000    0.0000 C   0  0  3  0  0  0  0  0  0  0  0  0
    8.0622   -3.5000    0.0000 C   0  0  0  0  0  0  0  0  0  0  0  0
    7.1962   -3.0000    0.0000 C   0  0  0  0  0  0  0  0  0  0  0  0
    7.1962   -2.0000    0.0000 C   0  0  0  0  0  0  0  0  0  0  0  0
    6.3301   -1.5000    0.0000 C   0  0  0  0  0  0  0  0  0  0  0  0
    6.3301   -0.5000    0.0000 C   0  0  0  0  0  0  0  0  0  0  0  0
    5.4641   -0.0000    0.0000 C   0  0  0  0  0  0  0  0  0  0  0  0
    5.4641    1.0000    0.0000 C   0  0  0  0  0  0  0  0  0  0  0  0
    7.1962   -5.0000    0.0000 C   0  0  0  0  0  0  0  0  0  0  0  0
    4.5981    1.5000    0.0000 C   0  0  0  0  0  0  0  0  0  0  0  0
    4.5981    2.5000    0.0000 C   0  0  0  0  0  0  0  0  0  0  0  0
    3.7320    3.0000    0.0000 C   0  0  0  0  0  0  0  0  0  0  0  0
    3.7320    4.0000    0.0000 C   0  0  0  0  0  0  0  0  0  0  0  0
    2.8660    4.5000    0.0000 C   0  0  0  0  0  0  0  0  0  0  0  0
    2.8660    5.5000    0.0000 C   0  0  0  0  0  0  0  0  0  0  0  0
    5.4641   -5.0000    0.0000 C   0  0  0  0  0  0  0  0  0  0  0  0
    2.0000    6.0000    0.0000 C   0  0  0  0  0  0  0  0  0  0  0  0
   11.8363   -4.0369    0.0000 H   0  0  0  0  0  0  0  0  0  0  0  0
   12.0632   -3.1900    0.0000 H   0  0  0  0  0  0  0  0  0  0  0  0
   11.2163   -2.9631    0.0000 H   0  0  0  0  0  0  0  0  0  0  0  0
   10.6972   -2.8240    0.0000 H   0  0  0  0  0  0  0  0  0  0  0  0
    9.8503   -2.5970    0.0000 H   0  0  0  0  0  0  0  0  0  0  0  0
    9.6233   -3.4440    0.0000 H   0  0  0  0  0  0  0  0  0  0  0  0
   10.6233   -5.1760    0.0000 H   0  0  0  0  0  0  0  0  0  0  0  0
   11.4703   -5.4030    0.0000 H   0  0  0  0  0  0  0  0  0  0  0  0
   11.6972   -4.5560    0.0000 H   0  0  0  0  0  0  0  0  0  0  0  0
    9.8312   -3.3240    0.0000 H   0  0  0  0  0  0  0  0  0  0  0  0
    8.9842   -3.0970    0.0000 H   0  0  0  0  0  0  0  0  0  0  0  0
    8.7573   -3.9440    0.0000 H   0  0  0  0  0  0  0  0  0  0  0  0
    9.7573   -5.6760    0.0000 H   0  0  0  0  0  0  0  0  0  0  0  0
   10.6042   -5.9030    0.0000 H   0  0  0  0  0  0  0  0  0  0  0  0
   10.8312   -5.0560    0.0000 H   0  0  0  0  0  0  0  0  0  0  0  0
    8.0622   -5.1200    0.0000 H   0  0  0  0  0  0  0  0  0  0  0  0
    8.6728   -3.6077    0.0000 H   0  0  0  0  0  0  0  0  0  0  0  0
    8.2742   -2.9174    0.0000 H   0  0  0  0  0  0  0  0  0  0  0  0
    6.5856   -2.8923    0.0000 H   0  0  0  0  0  0  0  0  0  0  0  0
    6.9841   -3.5826    0.0000 H   0  0  0  0  0  0  0  0  0  0  0  0
    7.8067   -2.1077    0.0000 H   0  0  0  0  0  0  0  0  0  0  0  0
    7.4082   -1.4174    0.0000 H   0  0  0  0  0  0  0  0  0  0  0  0
    5.7196   -1.3923    0.0000 H   0  0  0  0  0  0  0  0  0  0  0  0
    6.1181   -2.0826    0.0000 H   0  0  0  0  0  0  0  0  0  0  0  0
    6.9407   -0.6077    0.0000 H   0  0  0  0  0  0  0  0  0  0  0  0
    6.5422    0.0826    0.0000 H   0  0  0  0  0  0  0  0  0  0  0  0
    4.8535    0.1077    0.0000 H   0  0  0  0  0  0  0  0  0  0  0  0
    5.2520   -0.5826    0.0000 H   0  0  0  0  0  0  0  0  0  0  0  0
    6.0747    0.8923    0.0000 H   0  0  0  0  0  0  0  0  0  0  0  0
    5.6762    1.5826    0.0000 H   0  0  0  0  0  0  0  0  0  0  0  0
    3.9875    1.6077    0.0000 H   0  0  0  0  0  0  0  0  0  0  0  0
    4.3860    0.9174    0.0000 H   0  0  0  0  0  0  0  0  0  0  0  0
    5.2087    2.3923    0.0000 H   0  0  0  0  0  0  0  0  0  0  0  0
    4.8101    3.0826    0.0000 H   0  0  0  0  0  0  0  0  0  0  0  0
    3.1215    3.1077    0.0000 H   0  0  0  0  0  0  0  0  0  0  0  0
    3.5200    2.4174    0.0000 H   0  0  0  0  0  0  0  0  0  0  0  0
    4.3426    3.8923    0.0000 H   0  0  0  0  0  0  0  0  0  0  0  0
    3.9441    4.5826    0.0000 H   0  0  0  0  0  0  0  0  0  0  0  0
    2.2554    4.6077    0.0000 H   0  0  0  0  0  0  0  0  0  0  0  0
    2.6540    3.9174    0.0000 H   0  0  0  0  0  0  0  0  0  0  0  0
    3.4766    5.3923    0.0000 H   0  0  0  0  0  0  0  0  0  0  0  0
    3.0781    6.0826    0.0000 H   0  0  0  0  0  0  0  0  0  0  0  0
    5.1541   -4.4631    0.0000 H   0  0  0  0  0  0  0  0  0  0  0  0
    4.9272   -5.3100    0.0000 H   0  0  0  0  0  0  0  0  0  0  0  0
    5.7741   -5.5369    0.0000 H   0  0  0  0  0  0  0  0  0  0  0  0
    2.3100    6.5369    0.0000 H   0  0  0  0  0  0  0  0  0  0  0  0
    1.4631    6.3100    0.0000 H   0  0  0  0  0  0  0  0  0  0  0  0
    1.6900    5.4631    0.0000 H   0  0  0  0  0  0  0  0  0  0  0  0
  1  2  1  0  0  0  0
  1  5  1  0  0  0  0
  1  9  1  0  0  0  0
  1 10  1  0  0  0  0
  2 11  1  0  0  0  0
  3 19  1  0  0  0  0
  3 26  1  0  0  0  0
  4 19  2  0  0  0  0
  5  6  1  0  0  0  0
  5  7  1  0  0  0  0
  5  8  1  0  0  0  0
  6 28  1  0  0  0  0
  6 29  1  0  0  0  0
  6 30  1  0  0  0  0
  7 31  1  0  0  0  0
  7 32  1  0  0  0  0
  7 33  1  0  0  0  0
  8 34  1  0  0  0  0
  8 35  1  0  0  0  0
  8 36  1  0  0  0  0
  9 37  1  0  0  0  0
  9 38  1  0  0  0  0
  9 39  1  0  0  0  0
 10 40  1  0  0  0  0
 10 41  1  0  0  0  0
 10 42  1  0  0  0  0
 11 12  1  0  0  0  0
 11 19  1  0  0  0  0
 11 43  1  0  0  0  0
 12 13  1  0  0  0  0
 12 44  1  0  0  0  0
 12 45  1  0  0  0  0
 13 14  1  0  0  0  0
 13 46  1  0  0  0  0
 13 47  1  0  0  0  0
 14 15  1  0  0  0  0
 14 48  1  0  0  0  0
 14 49  1  0  0  0  0
 15 16  1  0  0  0  0
 15 50  1  0  0  0  0
 15 51  1  0  0  0  0
 16 17  1  0  0  0  0
 16 52  1  0  0  0  0
 16 53  1  0  0  0  0
 17 18  1  0  0  0  0
 17 54  1  0  0  0  0
 17 55  1  0  0  0  0
 18 20  1  0  0  0  0
 18 56  1  0  0  0  0
 18 57  1  0  0  0  0
 20 21  1  0  0  0  0
 20 58  1  0  0  0  0
 20 59  1  0  0  0  0
 21 22  1  0  0  0  0
 21 60  1  0  0  0  0
 21 61  1  0  0  0  0
 22 23  1  0  0  0  0
 22 62  1  0  0  0  0
 22 63  1  0  0  0  0
 23 24  1  0  0  0  0
 23 64  1  0  0  0  0
 23 65  1  0  0  0  0
 24 25  1  0  0  0  0
 24 66  1  0  0  0  0
 24 67  1  0  0  0  0
 25 27  1  0  0  0  0
 25 68  1  0  0  0  0
 25 69  1  0  0  0  0
 26 70  1  0  0  0  0
 26 71  1  0  0  0  0
 26 72  1  0  0  0  0
 27 73  1  0  0  0  0
 27 74  1  0  0  0  0
 27 75  1  0  0  0  0
M  END
> <PUBCHEM_COMPOUND_CID>
526794
> <PUBCHEM_COMPOUND_CANONICALIZED>
1
> <PUBCHEM_CACTVS_COMPLEXITY>
374
> <PUBCHEM_CACTVS_HBOND_ACCEPTOR>
3
> <PUBCHEM_CACTVS_HBOND_DONOR>
0
> <PUBCHEM_CACTVS_ROTATABLE_BOND>
18
> <PUBCHEM_CACTVS_SUBSKEYS>
AAADcfB4MAgAAAAAAAAAAAAAAAAAAAAAAAAAAAAAAAAAAAAAAAAAGhAAAEAADBSgoAJCCAAABAEIAACQCAIAAAAAAAAAAAFAAAABABIAAAAAAAAEAAACAAGIyKCAAAAAAAAAAAAAAAAAAAAAAAAAAAAAAA==
> <PUBCHEM_IUPAC_OPENEYE_NAME>
methyl 2-[tert-butyl(dimethyl)silyl]oxyhexadecanoate
> <PUBCHEM_IUPAC_CAS_NAME>
2-[tert-butyl(dimethyl)silyl]oxyhexadecanoic acid methyl ester
> <PUBCHEM_IUPAC_NAME_MARKUP>
methyl 2-[<I>tert</I>-butyl(dimethyl)silyl]oxyhexadecanoate
> <PUBCHEM_IUPAC_NAME>
methyl 2-[tert-butyl(dimethyl)silyl]oxyhexadecanoate
> <PUBCHEM_IUPAC_SYSTEMATIC_NAME>
methyl 2-[tert-butyl(dimethyl)silyl]oxyhexadecanoate
> <PUBCHEM_IUPAC_TRADITIONAL_NAME>
2-[tert-butyl(dimethyl)silyl]oxypalmitic acid methyl ester
> <PUBCHEM_IUPAC_INCHI>
InChI=1S/C23H48O3Si/c1-8-9-10-11-12-13-14-15-16-17-18-19-20-21(22(24)25-5)26-27(6,7)23(2,3)4/h21H,8-20H2,1-7H3
> <PUBCHEM_IUPAC_INCHIKEY>
JXIFMMAYTILMOV-UHFFFAOYSA-N
> <PUBCHEM_EXACT_MASS>
400.33727192
> <PUBCHEM_MOLECULAR_FORMULA>
C23H48O3Si
> <PUBCHEM_MOLECULAR_WEIGHT>
400.7
> <PUBCHEM_OPENEYE_CAN_SMILES>
CCCCCCCCCCCCCCC(C(=O)OC)O[Si](C)(C)C(C)(C)C
> <PUBCHEM_OPENEYE_ISO_SMILES>
CCCCCCCCCCCCCCC(C(=O)OC)O[Si](C)(C)C(C)(C)C
> <PUBCHEM_CACTVS_TPSA>
35.5
> <PUBCHEM_MONOISOTOPIC_WEIGHT>
400.33727192
> <PUBCHEM_TOTAL_CHARGE>
0
> <PUBCHEM_HEAVY_ATOM_COUNT>
27
> <PUBCHEM_ATOM_DEF_STEREO_COUNT>
0
> <PUBCHEM_ATOM_UDEF_STEREO_COUNT>
1
> <PUBCHEM_BOND_DEF_STEREO_COUNT>
0
> <PUBCHEM_BOND_UDEF_STEREO_COUNT>
0
> <PUBCHEM_ISOTOPIC_ATOM_COUNT>
0
> <PUBCHEM_COMPONENT_COUNT>
1
> <PUBCHEM_CACTVS_TAUTO_COUNT>
-1
> <PUBCHEM_COORDINATE_TYPE>
1
5
255
> <PUBCHEM_BONDANNOTATIONS>
11  12  3
$$$$
