526782
  -OEChem-10302200292D
 84 83  0     1  0  0  0  0  0999 V2000
   11.5263   -3.5000    0.0000 Si  0  0  0  0  0  0  0  0  0  0  0  0
   10.6603   -4.0000    0.0000 O   0  0  0  0  0  0  0  0  0  0  0  0
    2.8660   -3.5000    0.0000 O   0  0  0  0  0  0  0  0  0  0  0  0
    3.7320   -5.0000    0.0000 O   0  0  0  0  0  0  0  0  0  0  0  0
   12.3923   -3.0000    0.0000 C   0  0  0  0  0  0  0  0  0  0  0  0
    9.7942   -3.5000    0.0000 C   0  0  3  0  0  0  0  0  0  0  0  0
    9.7942   -2.5000    0.0000 C   0  0  0  0  0  0  0  0  0  0  0  0
    8.9282   -4.0000    0.0000 C   0  0  0  0  0  0  0  0  0  0  0  0
   11.0263   -2.6340    0.0000 C   0  0  0  0  0  0  0  0  0  0  0  0
   12.0263   -4.3660    0.0000 C   0  0  0  0  0  0  0  0  0  0  0  0
   13.2583   -2.5000    0.0000 C   0  0  0  0  0  0  0  0  0  0  0  0
   11.8923   -2.1340    0.0000 C   0  0  0  0  0  0  0  0  0  0  0  0
   12.8923   -3.8660    0.0000 C   0  0  0  0  0  0  0  0  0  0  0  0
    8.9282   -2.0000    0.0000 C   0  0  0  0  0  0  0  0  0  0  0  0
    8.0622   -3.5000    0.0000 C   0  0  0  0  0  0  0  0  0  0  0  0
    8.9282   -1.0000    0.0000 C   0  0  0  0  0  0  0  0  0  0  0  0
    7.1962   -4.0000    0.0000 C   0  0  0  0  0  0  0  0  0  0  0  0
    8.0622   -0.5000    0.0000 C   0  0  0  0  0  0  0  0  0  0  0  0
    8.0622    0.5000    0.0000 C   0  0  0  0  0  0  0  0  0  0  0  0
    6.3301   -3.5000    0.0000 C   0  0  0  0  0  0  0  0  0  0  0  0
    7.1962    1.0000    0.0000 C   0  0  0  0  0  0  0  0  0  0  0  0
    5.4641   -4.0000    0.0000 C   0  0  0  0  0  0  0  0  0  0  0  0
    7.1962    2.0000    0.0000 C   0  0  0  0  0  0  0  0  0  0  0  0
    6.3301    2.5000    0.0000 C   0  0  0  0  0  0  0  0  0  0  0  0
    4.5981   -3.5000    0.0000 C   0  0  0  0  0  0  0  0  0  0  0  0
    6.3301    3.5000    0.0000 C   0  0  0  0  0  0  0  0  0  0  0  0
    5.4641    4.0000    0.0000 C   0  0  0  0  0  0  0  0  0  0  0  0
    3.7320   -4.0000    0.0000 C   0  0  0  0  0  0  0  0  0  0  0  0
    5.4641    5.0000    0.0000 C   0  0  0  0  0  0  0  0  0  0  0  0
    2.0000   -4.0000    0.0000 C   0  0  0  0  0  0  0  0  0  0  0  0
    9.7942   -4.1200    0.0000 H   0  0  0  0  0  0  0  0  0  0  0  0
   10.4048   -2.6077    0.0000 H   0  0  0  0  0  0  0  0  0  0  0  0
   10.0063   -1.9174    0.0000 H   0  0  0  0  0  0  0  0  0  0  0  0
    8.5297   -4.4750    0.0000 H   0  0  0  0  0  0  0  0  0  0  0  0
    9.3267   -4.4750    0.0000 H   0  0  0  0  0  0  0  0  0  0  0  0
   11.5632   -2.3240    0.0000 H   0  0  0  0  0  0  0  0  0  0  0  0
   10.7163   -2.0970    0.0000 H   0  0  0  0  0  0  0  0  0  0  0  0
   10.4893   -2.9440    0.0000 H   0  0  0  0  0  0  0  0  0  0  0  0
   11.4893   -4.6760    0.0000 H   0  0  0  0  0  0  0  0  0  0  0  0
   12.3363   -4.9030    0.0000 H   0  0  0  0  0  0  0  0  0  0  0  0
   12.5632   -4.0560    0.0000 H   0  0  0  0  0  0  0  0  0  0  0  0
   13.5683   -3.0369    0.0000 H   0  0  0  0  0  0  0  0  0  0  0  0
   13.7953   -2.1900    0.0000 H   0  0  0  0  0  0  0  0  0  0  0  0
   12.9483   -1.9631    0.0000 H   0  0  0  0  0  0  0  0  0  0  0  0
   12.4292   -1.8240    0.0000 H   0  0  0  0  0  0  0  0  0  0  0  0
   11.5823   -1.5970    0.0000 H   0  0  0  0  0  0  0  0  0  0  0  0
   11.3554   -2.4440    0.0000 H   0  0  0  0  0  0  0  0  0  0  0  0
   12.3554   -4.1760    0.0000 H   0  0  0  0  0  0  0  0  0  0  0  0
   13.2023   -4.4030    0.0000 H   0  0  0  0  0  0  0  0  0  0  0  0
   13.4292   -3.5560    0.0000 H   0  0  0  0  0  0  0  0  0  0  0  0
    8.3176   -1.8923    0.0000 H   0  0  0  0  0  0  0  0  0  0  0  0
    8.7162   -2.5826    0.0000 H   0  0  0  0  0  0  0  0  0  0  0  0
    8.4607   -3.0250    0.0000 H   0  0  0  0  0  0  0  0  0  0  0  0
    7.6636   -3.0250    0.0000 H   0  0  0  0  0  0  0  0  0  0  0  0
    9.5388   -1.1077    0.0000 H   0  0  0  0  0  0  0  0  0  0  0  0
    9.1403   -0.4174    0.0000 H   0  0  0  0  0  0  0  0  0  0  0  0
    6.7976   -4.4750    0.0000 H   0  0  0  0  0  0  0  0  0  0  0  0
    7.5947   -4.4750    0.0000 H   0  0  0  0  0  0  0  0  0  0  0  0
    7.4516   -0.3923    0.0000 H   0  0  0  0  0  0  0  0  0  0  0  0
    7.8501   -1.0826    0.0000 H   0  0  0  0  0  0  0  0  0  0  0  0
    8.6728    0.3923    0.0000 H   0  0  0  0  0  0  0  0  0  0  0  0
    8.2742    1.0826    0.0000 H   0  0  0  0  0  0  0  0  0  0  0  0
    6.7287   -3.0250    0.0000 H   0  0  0  0  0  0  0  0  0  0  0  0
    5.9316   -3.0250    0.0000 H   0  0  0  0  0  0  0  0  0  0  0  0
    6.5856    1.1077    0.0000 H   0  0  0  0  0  0  0  0  0  0  0  0
    6.9841    0.4174    0.0000 H   0  0  0  0  0  0  0  0  0  0  0  0
    5.0656   -4.4750    0.0000 H   0  0  0  0  0  0  0  0  0  0  0  0
    5.8626   -4.4750    0.0000 H   0  0  0  0  0  0  0  0  0  0  0  0
    7.8067    1.8923    0.0000 H   0  0  0  0  0  0  0  0  0  0  0  0
    7.4082    2.5826    0.0000 H   0  0  0  0  0  0  0  0  0  0  0  0
    5.7196    2.6077    0.0000 H   0  0  0  0  0  0  0  0  0  0  0  0
    6.1181    1.9174    0.0000 H   0  0  0  0  0  0  0  0  0  0  0  0
    4.9966   -3.0250    0.0000 H   0  0  0  0  0  0  0  0  0  0  0  0
    4.1996   -3.0250    0.0000 H   0  0  0  0  0  0  0  0  0  0  0  0
    6.9407    3.3923    0.0000 H   0  0  0  0  0  0  0  0  0  0  0  0
    6.5422    4.0826    0.0000 H   0  0  0  0  0  0  0  0  0  0  0  0
    4.8535    4.1077    0.0000 H   0  0  0  0  0  0  0  0  0  0  0  0
    5.2520    3.4174    0.0000 H   0  0  0  0  0  0  0  0  0  0  0  0
    6.0841    5.0000    0.0000 H   0  0  0  0  0  0  0  0  0  0  0  0
    5.4641    5.6200    0.0000 H   0  0  0  0  0  0  0  0  0  0  0  0
    4.8441    5.0000    0.0000 H   0  0  0  0  0  0  0  0  0  0  0  0
    1.6900   -3.4631    0.0000 H   0  0  0  0  0  0  0  0  0  0  0  0
    1.4631   -4.3100    0.0000 H   0  0  0  0  0  0  0  0  0  0  0  0
    2.3100   -4.5369    0.0000 H   0  0  0  0  0  0  0  0  0  0  0  0
  1  2  1  0  0  0  0
  1  5  1  0  0  0  0
  1  9  1  0  0  0  0
  1 10  1  0  0  0  0
  2  6  1  0  0  0  0
  3 28  1  0  0  0  0
  3 30  1  0  0  0  0
  4 28  2  0  0  0  0
  5 11  1  0  0  0  0
  5 12  1  0  0  0  0
  5 13  1  0  0  0  0
  6  7  1  0  0  0  0
  6  8  1  0  0  0  0
  6 31  1  0  0  0  0
  7 14  1  0  0  0  0
  7 32  1  0  0  0  0
  7 33  1  0  0  0  0
  8 15  1  0  0  0  0
  8 34  1  0  0  0  0
  8 35  1  0  0  0  0
  9 36  1  0  0  0  0
  9 37  1  0  0  0  0
  9 38  1  0  0  0  0
 10 39  1  0  0  0  0
 10 40  1  0  0  0  0
 10 41  1  0  0  0  0
 11 42  1  0  0  0  0
 11 43  1  0  0  0  0
 11 44  1  0  0  0  0
 12 45  1  0  0  0  0
 12 46  1  0  0  0  0
 12 47  1  0  0  0  0
 13 48  1  0  0  0  0
 13 49  1  0  0  0  0
 13 50  1  0  0  0  0
 14 16  1  0  0  0  0
 14 51  1  0  0  0  0
 14 52  1  0  0  0  0
 15 17  1  0  0  0  0
 15 53  1  0  0  0  0
 15 54  1  0  0  0  0
 16 18  1  0  0  0  0
 16 55  1  0  0  0  0
 16 56  1  0  0  0  0
 17 20  1  0  0  0  0
 17 57  1  0  0  0  0
 17 58  1  0  0  0  0
 18 19  1  0  0  0  0
 18 59  1  0  0  0  0
 18 60  1  0  0  0  0
 19 21  1  0  0  0  0
 19 61  1  0  0  0  0
 19 62  1  0  0  0  0
 20 22  1  0  0  0  0
 20 63  1  0  0  0  0
 20 64  1  0  0  0  0
 21 23  1  0  0  0  0
 21 65  1  0  0  0  0
 21 66  1  0  0  0  0
 22 25  1  0  0  0  0
 22 67  1  0  0  0  0
 22 68  1  0  0  0  0
 23 24  1  0  0  0  0
 23 69  1  0  0  0  0
 23 70  1  0  0  0  0
 24 26  1  0  0  0  0
 24 71  1  0  0  0  0
 24 72  1  0  0  0  0
 25 28  1  0  0  0  0
 25 73  1  0  0  0  0
 25 74  1  0  0  0  0
 26 27  1  0  0  0  0
 26 75  1  0  0  0  0
 26 76  1  0  0  0  0
 27 29  1  0  0  0  0
 27 77  1  0  0  0  0
 27 78  1  0  0  0  0
 29 79  1  0  0  0  0
 29 80  1  0  0  0  0
 29 81  1  0  0  0  0
 30 82  1  0  0  0  0
 30 83  1  0  0  0  0
 30 84  1  0  0  0  0
M  END
> <PUBCHEM_COMPOUND_CID>
526782
> <PUBCHEM_COMPOUND_CANONICALIZED>
1
> <PUBCHEM_CACTVS_COMPLEXITY>
415
> <PUBCHEM_CACTVS_HBOND_ACCEPTOR>
3
> <PUBCHEM_CACTVS_HBOND_DONOR>
0
> <PUBCHEM_CACTVS_ROTATABLE_BOND>
21
> <PUBCHEM_CACTVS_SUBSKEYS>
AAADcfB4MAgAAAAAAAAAAAAAAAAAAAAAAAAAAAAAAAAAAAAAAAAAGhAAAEAADBSgoAJCCAAABAEIAACQCAAAAAAAAAAAAAEAAAAAABIAAAAAAAAEAAAAAAGIyKCAAAAAAAAAAAAAAAAAAAAAAAAAAAAAAA==
> <PUBCHEM_IUPAC_OPENEYE_NAME>
methyl 8-[tert-butyl(dimethyl)silyl]oxynonadecanoate
> <PUBCHEM_IUPAC_CAS_NAME>
8-[tert-butyl(dimethyl)silyl]oxynonadecanoic acid methyl ester
> <PUBCHEM_IUPAC_NAME_MARKUP>
methyl 8-[<I>tert</I>-butyl(dimethyl)silyl]oxynonadecanoate
> <PUBCHEM_IUPAC_NAME>
methyl 8-[tert-butyl(dimethyl)silyl]oxynonadecanoate
> <PUBCHEM_IUPAC_SYSTEMATIC_NAME>
methyl 8-[tert-butyl(dimethyl)silyl]oxynonadecanoate
> <PUBCHEM_IUPAC_TRADITIONAL_NAME>
8-[tert-butyl(dimethyl)silyl]oxynonadecanoic acid methyl ester
> <PUBCHEM_IUPAC_INCHI>
InChI=1S/C26H54O3Si/c1-8-9-10-11-12-13-14-15-18-21-24(29-30(6,7)26(2,3)4)22-19-16-17-20-23-25(27)28-5/h24H,8-23H2,1-7H3
> <PUBCHEM_IUPAC_INCHIKEY>
MSRVHIHFHHHGTO-UHFFFAOYSA-N
> <PUBCHEM_EXACT_MASS>
442.38422211
> <PUBCHEM_MOLECULAR_FORMULA>
C26H54O3Si
> <PUBCHEM_MOLECULAR_WEIGHT>
442.8
> <PUBCHEM_OPENEYE_CAN_SMILES>
CCCCCCCCCCCC(CCCCCCC(=O)OC)O[Si](C)(C)C(C)(C)C
> <PUBCHEM_OPENEYE_ISO_SMILES>
CCCCCCCCCCCC(CCCCCCC(=O)OC)O[Si](C)(C)C(C)(C)C
> <PUBCHEM_CACTVS_TPSA>
35.5
> <PUBCHEM_MONOISOTOPIC_WEIGHT>
442.38422211
> <PUBCHEM_TOTAL_CHARGE>
0
> <PUBCHEM_HEAVY_ATOM_COUNT>
30
> <PUBCHEM_ATOM_DEF_STEREO_COUNT>
0
> <PUBCHEM_ATOM_UDEF_STEREO_COUNT>
1
> <PUBCHEM_BOND_DEF_STEREO_COUNT>
0
> <PUBCHEM_BOND_UDEF_STEREO_COUNT>
0
> <PUBCHEM_ISOTOPIC_ATOM_COUNT>
0
> <PUBCHEM_COMPONENT_COUNT>
1
> <PUBCHEM_CACTVS_TAUTO_COUNT>
-1
> <PUBCHEM_COORDINATE_TYPE>
1
5
255
> <PUBCHEM_BONDANNOTATIONS>
6  7  3
$$$$
