526770
  -OEChem-10302200292D
 87 86  0     1  0  0  0  0  0999 V2000
   14.1244   -3.0670    0.0000 Si  0  0  0  0  0  0  0  0  0  0  0  0
   13.2583   -3.5670    0.0000 O   0  0  0  0  0  0  0  0  0  0  0  0
    2.8660   -3.5670    0.0000 O   0  0  0  0  0  0  0  0  0  0  0  0
    3.7320   -2.0670    0.0000 O   0  0  0  0  0  0  0  0  0  0  0  0
   14.9904   -2.5670    0.0000 C   0  0  0  0  0  0  0  0  0  0  0  0
   12.3923   -3.0670    0.0000 C   0  0  3  0  0  0  0  0  0  0  0  0
   11.5263   -3.5670    0.0000 C   0  0  0  0  0  0  0  0  0  0  0  0
   12.3923   -2.0670    0.0000 C   0  0  0  0  0  0  0  0  0  0  0  0
   13.6244   -2.2010    0.0000 C   0  0  0  0  0  0  0  0  0  0  0  0
   14.6244   -3.9330    0.0000 C   0  0  0  0  0  0  0  0  0  0  0  0
   15.8564   -2.0670    0.0000 C   0  0  0  0  0  0  0  0  0  0  0  0
   14.4904   -1.7010    0.0000 C   0  0  0  0  0  0  0  0  0  0  0  0
   15.4904   -3.4330    0.0000 C   0  0  0  0  0  0  0  0  0  0  0  0
   10.6603   -3.0670    0.0000 C   0  0  0  0  0  0  0  0  0  0  0  0
   11.5263   -1.5670    0.0000 C   0  0  0  0  0  0  0  0  0  0  0  0
    9.7942   -3.5670    0.0000 C   0  0  0  0  0  0  0  0  0  0  0  0
   11.5263   -0.5670    0.0000 C   0  0  0  0  0  0  0  0  0  0  0  0
    8.9282   -3.0670    0.0000 C   0  0  0  0  0  0  0  0  0  0  0  0
   10.6603   -0.0670    0.0000 C   0  0  0  0  0  0  0  0  0  0  0  0
    8.0622   -3.5670    0.0000 C   0  0  0  0  0  0  0  0  0  0  0  0
   10.6603    0.9330    0.0000 C   0  0  0  0  0  0  0  0  0  0  0  0
    7.1962   -3.0670    0.0000 C   0  0  0  0  0  0  0  0  0  0  0  0
    9.7942    1.4330    0.0000 C   0  0  0  0  0  0  0  0  0  0  0  0
    6.3301   -3.5670    0.0000 C   0  0  0  0  0  0  0  0  0  0  0  0
    9.7942    2.4330    0.0000 C   0  0  0  0  0  0  0  0  0  0  0  0
    5.4641   -3.0670    0.0000 C   0  0  0  0  0  0  0  0  0  0  0  0
    8.9282    2.9330    0.0000 C   0  0  0  0  0  0  0  0  0  0  0  0
    4.5981   -3.5670    0.0000 C   0  0  0  0  0  0  0  0  0  0  0  0
    8.9282    3.9330    0.0000 C   0  0  0  0  0  0  0  0  0  0  0  0
    3.7320   -3.0670    0.0000 C   0  0  0  0  0  0  0  0  0  0  0  0
    2.0000   -3.0670    0.0000 C   0  0  0  0  0  0  0  0  0  0  0  0
   12.3923   -3.6870    0.0000 H   0  0  0  0  0  0  0  0  0  0  0  0
   11.1278   -4.0419    0.0000 H   0  0  0  0  0  0  0  0  0  0  0  0
   11.9248   -4.0419    0.0000 H   0  0  0  0  0  0  0  0  0  0  0  0
   13.0029   -2.1747    0.0000 H   0  0  0  0  0  0  0  0  0  0  0  0
   12.6044   -1.4844    0.0000 H   0  0  0  0  0  0  0  0  0  0  0  0
   14.1613   -1.8910    0.0000 H   0  0  0  0  0  0  0  0  0  0  0  0
   13.3144   -1.6640    0.0000 H   0  0  0  0  0  0  0  0  0  0  0  0
   13.0874   -2.5110    0.0000 H   0  0  0  0  0  0  0  0  0  0  0  0
   14.0874   -4.2430    0.0000 H   0  0  0  0  0  0  0  0  0  0  0  0
   14.9344   -4.4700    0.0000 H   0  0  0  0  0  0  0  0  0  0  0  0
   15.1613   -3.6230    0.0000 H   0  0  0  0  0  0  0  0  0  0  0  0
   16.1664   -2.6039    0.0000 H   0  0  0  0  0  0  0  0  0  0  0  0
   16.3933   -1.7570    0.0000 H   0  0  0  0  0  0  0  0  0  0  0  0
   15.5464   -1.5300    0.0000 H   0  0  0  0  0  0  0  0  0  0  0  0
   15.0273   -1.3910    0.0000 H   0  0  0  0  0  0  0  0  0  0  0  0
   14.1804   -1.1640    0.0000 H   0  0  0  0  0  0  0  0  0  0  0  0
   13.9534   -2.0110    0.0000 H   0  0  0  0  0  0  0  0  0  0  0  0
   14.9534   -3.7430    0.0000 H   0  0  0  0  0  0  0  0  0  0  0  0
   15.8004   -3.9700    0.0000 H   0  0  0  0  0  0  0  0  0  0  0  0
   16.0273   -3.1230    0.0000 H   0  0  0  0  0  0  0  0  0  0  0  0
   11.0588   -2.5920    0.0000 H   0  0  0  0  0  0  0  0  0  0  0  0
   10.2617   -2.5920    0.0000 H   0  0  0  0  0  0  0  0  0  0  0  0
   10.9157   -1.4593    0.0000 H   0  0  0  0  0  0  0  0  0  0  0  0
   11.3142   -2.1496    0.0000 H   0  0  0  0  0  0  0  0  0  0  0  0
    9.3957   -4.0419    0.0000 H   0  0  0  0  0  0  0  0  0  0  0  0
   10.1928   -4.0419    0.0000 H   0  0  0  0  0  0  0  0  0  0  0  0
   12.1369   -0.6746    0.0000 H   0  0  0  0  0  0  0  0  0  0  0  0
   11.7383    0.0156    0.0000 H   0  0  0  0  0  0  0  0  0  0  0  0
    9.3267   -2.5920    0.0000 H   0  0  0  0  0  0  0  0  0  0  0  0
    8.5297   -2.5920    0.0000 H   0  0  0  0  0  0  0  0  0  0  0  0
   10.0497    0.0407    0.0000 H   0  0  0  0  0  0  0  0  0  0  0  0
   10.4482   -0.6496    0.0000 H   0  0  0  0  0  0  0  0  0  0  0  0
    7.6636   -4.0419    0.0000 H   0  0  0  0  0  0  0  0  0  0  0  0
    8.4607   -4.0419    0.0000 H   0  0  0  0  0  0  0  0  0  0  0  0
   11.2708    0.8254    0.0000 H   0  0  0  0  0  0  0  0  0  0  0  0
   10.8723    1.5156    0.0000 H   0  0  0  0  0  0  0  0  0  0  0  0
    7.5947   -2.5920    0.0000 H   0  0  0  0  0  0  0  0  0  0  0  0
    6.7976   -2.5920    0.0000 H   0  0  0  0  0  0  0  0  0  0  0  0
    9.1836    1.5407    0.0000 H   0  0  0  0  0  0  0  0  0  0  0  0
    9.5822    0.8504    0.0000 H   0  0  0  0  0  0  0  0  0  0  0  0
    5.9316   -4.0419    0.0000 H   0  0  0  0  0  0  0  0  0  0  0  0
    6.7287   -4.0419    0.0000 H   0  0  0  0  0  0  0  0  0  0  0  0
   10.4048    2.3253    0.0000 H   0  0  0  0  0  0  0  0  0  0  0  0
   10.0063    3.0156    0.0000 H   0  0  0  0  0  0  0  0  0  0  0  0
    5.8626   -2.5920    0.0000 H   0  0  0  0  0  0  0  0  0  0  0  0
    5.0656   -2.5920    0.0000 H   0  0  0  0  0  0  0  0  0  0  0  0
    8.3176    3.0407    0.0000 H   0  0  0  0  0  0  0  0  0  0  0  0
    8.7162    2.3504    0.0000 H   0  0  0  0  0  0  0  0  0  0  0  0
    4.1996   -4.0419    0.0000 H   0  0  0  0  0  0  0  0  0  0  0  0
    4.9966   -4.0419    0.0000 H   0  0  0  0  0  0  0  0  0  0  0  0
    9.5482    3.9330    0.0000 H   0  0  0  0  0  0  0  0  0  0  0  0
    8.9282    4.5530    0.0000 H   0  0  0  0  0  0  0  0  0  0  0  0
    8.3082    3.9330    0.0000 H   0  0  0  0  0  0  0  0  0  0  0  0
    2.3100   -2.5300    0.0000 H   0  0  0  0  0  0  0  0  0  0  0  0
    1.4631   -2.7570    0.0000 H   0  0  0  0  0  0  0  0  0  0  0  0
    1.6900   -3.6039    0.0000 H   0  0  0  0  0  0  0  0  0  0  0  0
  1  2  1  0  0  0  0
  1  5  1  0  0  0  0
  1  9  1  0  0  0  0
  1 10  1  0  0  0  0
  2  6  1  0  0  0  0
  3 30  1  0  0  0  0
  3 31  1  0  0  0  0
  4 30  2  0  0  0  0
  5 11  1  0  0  0  0
  5 12  1  0  0  0  0
  5 13  1  0  0  0  0
  6  7  1  0  0  0  0
  6  8  1  0  0  0  0
  6 32  1  0  0  0  0
  7 14  1  0  0  0  0
  7 33  1  0  0  0  0
  7 34  1  0  0  0  0
  8 15  1  0  0  0  0
  8 35  1  0  0  0  0
  8 36  1  0  0  0  0
  9 37  1  0  0  0  0
  9 38  1  0  0  0  0
  9 39  1  0  0  0  0
 10 40  1  0  0  0  0
 10 41  1  0  0  0  0
 10 42  1  0  0  0  0
 11 43  1  0  0  0  0
 11 44  1  0  0  0  0
 11 45  1  0  0  0  0
 12 46  1  0  0  0  0
 12 47  1  0  0  0  0
 12 48  1  0  0  0  0
 13 49  1  0  0  0  0
 13 50  1  0  0  0  0
 13 51  1  0  0  0  0
 14 16  1  0  0  0  0
 14 52  1  0  0  0  0
 14 53  1  0  0  0  0
 15 17  1  0  0  0  0
 15 54  1  0  0  0  0
 15 55  1  0  0  0  0
 16 18  1  0  0  0  0
 16 56  1  0  0  0  0
 16 57  1  0  0  0  0
 17 19  1  0  0  0  0
 17 58  1  0  0  0  0
 17 59  1  0  0  0  0
 18 20  1  0  0  0  0
 18 60  1  0  0  0  0
 18 61  1  0  0  0  0
 19 21  1  0  0  0  0
 19 62  1  0  0  0  0
 19 63  1  0  0  0  0
 20 22  1  0  0  0  0
 20 64  1  0  0  0  0
 20 65  1  0  0  0  0
 21 23  1  0  0  0  0
 21 66  1  0  0  0  0
 21 67  1  0  0  0  0
 22 24  1  0  0  0  0
 22 68  1  0  0  0  0
 22 69  1  0  0  0  0
 23 25  1  0  0  0  0
 23 70  1  0  0  0  0
 23 71  1  0  0  0  0
 24 26  1  0  0  0  0
 24 72  1  0  0  0  0
 24 73  1  0  0  0  0
 25 27  1  0  0  0  0
 25 74  1  0  0  0  0
 25 75  1  0  0  0  0
 26 28  1  0  0  0  0
 26 76  1  0  0  0  0
 26 77  1  0  0  0  0
 27 29  1  0  0  0  0
 27 78  1  0  0  0  0
 27 79  1  0  0  0  0
 28 30  1  0  0  0  0
 28 80  1  0  0  0  0
 28 81  1  0  0  0  0
 29 82  1  0  0  0  0
 29 83  1  0  0  0  0
 29 84  1  0  0  0  0
 31 85  1  0  0  0  0
 31 86  1  0  0  0  0
 31 87  1  0  0  0  0
M  END
> <PUBCHEM_COMPOUND_CID>
526770
> <PUBCHEM_COMPOUND_CANONICALIZED>
1
> <PUBCHEM_CACTVS_COMPLEXITY>
429
> <PUBCHEM_CACTVS_HBOND_ACCEPTOR>
3
> <PUBCHEM_CACTVS_HBOND_DONOR>
0
> <PUBCHEM_CACTVS_ROTATABLE_BOND>
22
> <PUBCHEM_CACTVS_SUBSKEYS>
AAADcfB4MAgAAAAAAAAAAAAAAAAAAAAAAAAAAAAAAAAAAAAAAAAAGhAAAEAADBSgoAJCCAAABAEIAACQCAAAAAAAAAAAAAEAAAAAABIAAAAAAAAEAAAAAAGIyKCAAAAAAAAAAAAAAAAAAAAAAAAAAAAAAA==
> <PUBCHEM_IUPAC_OPENEYE_NAME>
methyl 11-[tert-butyl(dimethyl)silyl]oxyicosanoate
> <PUBCHEM_IUPAC_CAS_NAME>
11-[tert-butyl(dimethyl)silyl]oxyeicosanoic acid methyl ester
> <PUBCHEM_IUPAC_NAME_MARKUP>
methyl 11-[<I>tert</I>-butyl(dimethyl)silyl]oxyicosanoate
> <PUBCHEM_IUPAC_NAME>
methyl 11-[tert-butyl(dimethyl)silyl]oxyicosanoate
> <PUBCHEM_IUPAC_SYSTEMATIC_NAME>
methyl 11-[tert-butyl(dimethyl)silyl]oxyicosanoate
> <PUBCHEM_IUPAC_TRADITIONAL_NAME>
11-[tert-butyl(dimethyl)silyl]oxyarachidic acid methyl ester
> <PUBCHEM_IUPAC_INCHI>
InChI=1S/C27H56O3Si/c1-8-9-10-11-13-16-19-22-25(30-31(6,7)27(2,3)4)23-20-17-14-12-15-18-21-24-26(28)29-5/h25H,8-24H2,1-7H3
> <PUBCHEM_IUPAC_INCHIKEY>
KITHQGOHUUDJLU-UHFFFAOYSA-N
> <PUBCHEM_EXACT_MASS>
456.39987218
> <PUBCHEM_MOLECULAR_FORMULA>
C27H56O3Si
> <PUBCHEM_MOLECULAR_WEIGHT>
456.8
> <PUBCHEM_OPENEYE_CAN_SMILES>
CCCCCCCCCC(CCCCCCCCCC(=O)OC)O[Si](C)(C)C(C)(C)C
> <PUBCHEM_OPENEYE_ISO_SMILES>
CCCCCCCCCC(CCCCCCCCCC(=O)OC)O[Si](C)(C)C(C)(C)C
> <PUBCHEM_CACTVS_TPSA>
35.5
> <PUBCHEM_MONOISOTOPIC_WEIGHT>
456.39987218
> <PUBCHEM_TOTAL_CHARGE>
0
> <PUBCHEM_HEAVY_ATOM_COUNT>
31
> <PUBCHEM_ATOM_DEF_STEREO_COUNT>
0
> <PUBCHEM_ATOM_UDEF_STEREO_COUNT>
1
> <PUBCHEM_BOND_DEF_STEREO_COUNT>
0
> <PUBCHEM_BOND_UDEF_STEREO_COUNT>
0
> <PUBCHEM_ISOTOPIC_ATOM_COUNT>
0
> <PUBCHEM_COMPONENT_COUNT>
1
> <PUBCHEM_CACTVS_TAUTO_COUNT>
-1
> <PUBCHEM_COORDINATE_TYPE>
1
5
255
> <PUBCHEM_BONDANNOTATIONS>
6  8  3
$$$$
