526799
  -OEChem-10302200292D
 60 60  0     1  0  0  0  0  0999 V2000
    3.7601   -1.7344    0.0000 O   0  0  0  0  0  0  0  0  0  0  0  0
    2.0000   -1.4556    0.0000 O   0  0  0  0  0  0  0  0  0  0  0  0
    4.5691   -1.1466    0.0000 C   0  0  3  0  0  0  0  0  0  0  0  0
    5.5202   -1.4556    0.0000 C   0  0  0  0  0  0  0  0  0  0  0  0
    6.2633   -0.7864    0.0000 C   0  0  0  0  0  0  0  0  0  0  0  0
    7.2144   -1.0955    0.0000 C   0  0  0  0  0  0  0  0  0  0  0  0
    7.9575   -0.4263    0.0000 C   0  0  0  0  0  0  0  0  0  0  0  0
    8.9086   -0.7354    0.0000 C   0  0  0  0  0  0  0  0  0  0  0  0
    9.6517   -0.0662    0.0000 C   0  0  0  0  0  0  0  0  0  0  0  0
    4.2601   -0.1955    0.0000 C   0  0  0  0  0  0  0  0  0  0  0  0
   10.6028   -0.3752    0.0000 C   0  0  0  0  0  0  0  0  0  0  0  0
   11.3459    0.2939    0.0000 C   0  0  0  0  0  0  0  0  0  0  0  0
   12.2970   -0.0151    0.0000 C   0  0  0  0  0  0  0  0  0  0  0  0
   13.0401    0.6540    0.0000 C   0  0  0  0  0  0  0  0  0  0  0  0
    3.2601   -0.1955    0.0000 C   0  0  0  0  0  0  0  0  0  0  0  0
   13.9912    0.3450    0.0000 C   0  0  0  0  0  0  0  0  0  0  0  0
   14.7343    1.0141    0.0000 C   0  0  0  0  0  0  0  0  0  0  0  0
   15.6854    0.7051    0.0000 C   0  0  0  0  0  0  0  0  0  0  0  0
    2.9511   -1.1466    0.0000 C   0  0  0  0  0  0  0  0  0  0  0  0
   16.4285    1.3742    0.0000 C   0  0  0  0  0  0  0  0  0  0  0  0
   17.3796    1.0652    0.0000 C   0  0  0  0  0  0  0  0  0  0  0  0
   18.1227    1.7344    0.0000 C   0  0  0  0  0  0  0  0  0  0  0  0
    4.6661   -1.7589    0.0000 H   0  0  0  0  0  0  0  0  0  0  0  0
    5.2291   -2.0030    0.0000 H   0  0  0  0  0  0  0  0  0  0  0  0
    6.0087   -1.8373    0.0000 H   0  0  0  0  0  0  0  0  0  0  0  0
    6.5544   -0.2390    0.0000 H   0  0  0  0  0  0  0  0  0  0  0  0
    5.7747   -0.4047    0.0000 H   0  0  0  0  0  0  0  0  0  0  0  0
    6.9233   -1.6429    0.0000 H   0  0  0  0  0  0  0  0  0  0  0  0
    7.7029   -1.4772    0.0000 H   0  0  0  0  0  0  0  0  0  0  0  0
    8.2486    0.1211    0.0000 H   0  0  0  0  0  0  0  0  0  0  0  0
    7.4689   -0.0446    0.0000 H   0  0  0  0  0  0  0  0  0  0  0  0
    8.6175   -1.2828    0.0000 H   0  0  0  0  0  0  0  0  0  0  0  0
    9.3971   -1.1171    0.0000 H   0  0  0  0  0  0  0  0  0  0  0  0
    9.9428    0.4812    0.0000 H   0  0  0  0  0  0  0  0  0  0  0  0
    9.1631    0.3155    0.0000 H   0  0  0  0  0  0  0  0  0  0  0  0
    4.8665   -0.0666    0.0000 H   0  0  0  0  0  0  0  0  0  0  0  0
    4.1953    0.4211    0.0000 H   0  0  0  0  0  0  0  0  0  0  0  0
   10.3117   -0.9227    0.0000 H   0  0  0  0  0  0  0  0  0  0  0  0
   11.0913   -0.7569    0.0000 H   0  0  0  0  0  0  0  0  0  0  0  0
   11.6370    0.8413    0.0000 H   0  0  0  0  0  0  0  0  0  0  0  0
   10.8573    0.6756    0.0000 H   0  0  0  0  0  0  0  0  0  0  0  0
   12.0059   -0.5626    0.0000 H   0  0  0  0  0  0  0  0  0  0  0  0
   12.7855   -0.3968    0.0000 H   0  0  0  0  0  0  0  0  0  0  0  0
   13.3312    1.2014    0.0000 H   0  0  0  0  0  0  0  0  0  0  0  0
   12.5515    1.0357    0.0000 H   0  0  0  0  0  0  0  0  0  0  0  0
    3.3249    0.4211    0.0000 H   0  0  0  0  0  0  0  0  0  0  0  0
    2.6536   -0.0666    0.0000 H   0  0  0  0  0  0  0  0  0  0  0  0
   13.7001   -0.2024    0.0000 H   0  0  0  0  0  0  0  0  0  0  0  0
   14.4797   -0.0367    0.0000 H   0  0  0  0  0  0  0  0  0  0  0  0
   15.0254    1.5616    0.0000 H   0  0  0  0  0  0  0  0  0  0  0  0
   14.2457    1.3958    0.0000 H   0  0  0  0  0  0  0  0  0  0  0  0
   15.3943    0.1577    0.0000 H   0  0  0  0  0  0  0  0  0  0  0  0
   16.1739    0.3234    0.0000 H   0  0  0  0  0  0  0  0  0  0  0  0
   16.7196    1.9217    0.0000 H   0  0  0  0  0  0  0  0  0  0  0  0
   15.9399    1.7559    0.0000 H   0  0  0  0  0  0  0  0  0  0  0  0
   17.0885    0.5178    0.0000 H   0  0  0  0  0  0  0  0  0  0  0  0
   17.8681    0.6835    0.0000 H   0  0  0  0  0  0  0  0  0  0  0  0
   18.5376    1.2736    0.0000 H   0  0  0  0  0  0  0  0  0  0  0  0
   18.5835    2.1492    0.0000 H   0  0  0  0  0  0  0  0  0  0  0  0
   17.7078    2.1951    0.0000 H   0  0  0  0  0  0  0  0  0  0  0  0
  1  3  1  0  0  0  0
  1 19  1  0  0  0  0
  2 19  2  0  0  0  0
  3  4  1  0  0  0  0
  3 10  1  0  0  0  0
  3 23  1  0  0  0  0
  4  5  1  0  0  0  0
  4 24  1  0  0  0  0
  4 25  1  0  0  0  0
  5  6  1  0  0  0  0
  5 26  1  0  0  0  0
  5 27  1  0  0  0  0
  6  7  1  0  0  0  0
  6 28  1  0  0  0  0
  6 29  1  0  0  0  0
  7  8  1  0  0  0  0
  7 30  1  0  0  0  0
  7 31  1  0  0  0  0
  8  9  1  0  0  0  0
  8 32  1  0  0  0  0
  8 33  1  0  0  0  0
  9 11  1  0  0  0  0
  9 34  1  0  0  0  0
  9 35  1  0  0  0  0
 10 15  1  0  0  0  0
 10 36  1  0  0  0  0
 10 37  1  0  0  0  0
 11 12  1  0  0  0  0
 11 38  1  0  0  0  0
 11 39  1  0  0  0  0
 12 13  1  0  0  0  0
 12 40  1  0  0  0  0
 12 41  1  0  0  0  0
 13 14  1  0  0  0  0
 13 42  1  0  0  0  0
 13 43  1  0  0  0  0
 14 16  1  0  0  0  0
 14 44  1  0  0  0  0
 14 45  1  0  0  0  0
 15 19  1  0  0  0  0
 15 46  1  0  0  0  0
 15 47  1  0  0  0  0
 16 17  1  0  0  0  0
 16 48  1  0  0  0  0
 16 49  1  0  0  0  0
 17 18  1  0  0  0  0
 17 50  1  0  0  0  0
 17 51  1  0  0  0  0
 18 20  1  0  0  0  0
 18 52  1  0  0  0  0
 18 53  1  0  0  0  0
 20 21  1  0  0  0  0
 20 54  1  0  0  0  0
 20 55  1  0  0  0  0
 21 22  1  0  0  0  0
 21 56  1  0  0  0  0
 21 57  1  0  0  0  0
 22 58  1  0  0  0  0
 22 59  1  0  0  0  0
 22 60  1  0  0  0  0
M  END
> <PUBCHEM_COMPOUND_CID>
526799
> <PUBCHEM_COMPOUND_CANONICALIZED>
1
> <PUBCHEM_CACTVS_COMPLEXITY>
262
> <PUBCHEM_CACTVS_HBOND_ACCEPTOR>
2
> <PUBCHEM_CACTVS_HBOND_DONOR>
0
> <PUBCHEM_CACTVS_ROTATABLE_BOND>
15
> <PUBCHEM_CACTVS_SUBSKEYS>
AAADcfB4MAAAAAAAAAAAAAAAAAAAASAAAAAAAAAAAAAAAAAAAAAAGgAAAAAACBSggAICCAAABAAIAACQCAAAAAAAAAAAAAEAAAAAABIAAAACAAAEAAAAAAGKyKCAAAAAAAAAAAAAAAAAAAAAAAAAAAAAAA==
> <PUBCHEM_IUPAC_OPENEYE_NAME>
5-hexadecyltetrahydrofuran-2-one
> <PUBCHEM_IUPAC_CAS_NAME>
5-hexadecyl-2-oxolanone
> <PUBCHEM_IUPAC_NAME_MARKUP>
5-hexadecyloxolan-2-one
> <PUBCHEM_IUPAC_NAME>
5-hexadecyloxolan-2-one
> <PUBCHEM_IUPAC_SYSTEMATIC_NAME>
5-hexadecyloxolan-2-one
> <PUBCHEM_IUPAC_TRADITIONAL_NAME>
5-cetyltetrahydrofuran-2-one
> <PUBCHEM_IUPAC_INCHI>
InChI=1S/C20H38O2/c1-2-3-4-5-6-7-8-9-10-11-12-13-14-15-16-19-17-18-20(21)22-19/h19H,2-18H2,1H3
> <PUBCHEM_IUPAC_INCHIKEY>
OIAOPTWTWLRDHD-UHFFFAOYSA-N
> <PUBCHEM_XLOGP3>
8.1
> <PUBCHEM_EXACT_MASS>
310.287180451
> <PUBCHEM_MOLECULAR_FORMULA>
C20H38O2
> <PUBCHEM_MOLECULAR_WEIGHT>
310.5
> <PUBCHEM_OPENEYE_CAN_SMILES>
CCCCCCCCCCCCCCCCC1CCC(=O)O1
> <PUBCHEM_OPENEYE_ISO_SMILES>
CCCCCCCCCCCCCCCCC1CCC(=O)O1
> <PUBCHEM_CACTVS_TPSA>
26.3
> <PUBCHEM_MONOISOTOPIC_WEIGHT>
310.287180451
> <PUBCHEM_TOTAL_CHARGE>
0
> <PUBCHEM_HEAVY_ATOM_COUNT>
22
> <PUBCHEM_ATOM_DEF_STEREO_COUNT>
0
> <PUBCHEM_ATOM_UDEF_STEREO_COUNT>
1
> <PUBCHEM_BOND_DEF_STEREO_COUNT>
0
> <PUBCHEM_BOND_UDEF_STEREO_COUNT>
0
> <PUBCHEM_ISOTOPIC_ATOM_COUNT>
0
> <PUBCHEM_COMPONENT_COUNT>
1
> <PUBCHEM_CACTVS_TAUTO_COUNT>
-1
> <PUBCHEM_COORDINATE_TYPE>
1
5
255
> <PUBCHEM_BONDANNOTATIONS>
3  4  3
$$$$
