526745
  -OEChem-10302200292D
 70 71  0     1  0  0  0  0  0999 V2000
   10.2942   -0.8840    0.0000 F   0  0  0  0  0  0  0  0  0  0  0  0
   10.6603   -2.2500    0.0000 F   0  0  0  0  0  0  0  0  0  0  0  0
    9.2942   -2.6160    0.0000 F   0  0  0  0  0  0  0  0  0  0  0  0
    5.4641   -5.2500    0.0000 F   0  0  0  0  0  0  0  0  0  0  0  0
    4.4641   -4.2500    0.0000 F   0  0  0  0  0  0  0  0  0  0  0  0
    6.4641   -4.2500    0.0000 F   0  0  0  0  0  0  0  0  0  0  0  0
    2.0000   -2.2500    0.0000 F   0  0  0  0  0  0  0  0  0  0  0  0
    2.3660   -0.8840    0.0000 F   0  0  0  0  0  0  0  0  0  0  0  0
    3.3660   -2.6160    0.0000 F   0  0  0  0  0  0  0  0  0  0  0  0
    3.7320    3.7500    0.0000 F   0  0  0  0  0  0  0  0  0  0  0  0
    2.7320    2.7500    0.0000 F   0  0  0  0  0  0  0  0  0  0  0  0
    4.7320    2.7500    0.0000 F   0  0  0  0  0  0  0  0  0  0  0  0
    8.0622    0.2500    0.0000 O   0  0  0  0  0  0  0  0  0  0  0  0
    6.3301    0.2500    0.0000 O   0  0  0  0  0  0  0  0  0  0  0  0
    8.0622   -1.7500    0.0000 O   0  0  0  0  0  0  0  0  0  0  0  0
    6.3301   -2.7500    0.0000 O   0  0  0  0  0  0  0  0  0  0  0  0
    4.5981   -1.7500    0.0000 O   0  0  0  0  0  0  0  0  0  0  0  0
    4.5981    1.2500    0.0000 O   0  0  0  0  0  0  0  0  0  0  0  0
    8.9282   -0.2500    0.0000 O   0  0  0  0  0  0  0  0  0  0  0  0
    4.5981   -2.7500    0.0000 O   0  0  0  0  0  0  0  0  0  0  0  0
    3.7320   -0.2500    0.0000 O   0  0  0  0  0  0  0  0  0  0  0  0
    2.8660    1.2500    0.0000 O   0  0  0  0  0  0  0  0  0  0  0  0
    8.0622    2.2500    0.0000 C   0  0  3  0  0  0  0  0  0  0  0  0
    8.0622    1.2500    0.0000 C   0  0  0  0  0  0  0  0  0  0  0  0
    7.1962   -0.2500    0.0000 C   0  0  3  0  0  0  0  0  0  0  0  0
    7.1962   -1.2500    0.0000 C   0  0  3  0  0  0  0  0  0  0  0  0
    6.3301   -1.7500    0.0000 C   0  0  3  0  0  0  0  0  0  0  0  0
    8.9282    2.7500    0.0000 C   0  0  0  0  0  0  0  0  0  0  0  0
    5.4641   -1.2500    0.0000 C   0  0  3  0  0  0  0  0  0  0  0  0
    7.1962    2.7500    0.0000 C   0  0  0  0  0  0  0  0  0  0  0  0
    5.4641   -0.2500    0.0000 C   0  0  3  0  0  0  0  0  0  0  0  0
    8.9282    3.7500    0.0000 C   0  0  0  0  0  0  0  0  0  0  0  0
    9.0622    1.2500    0.0000 C   0  0  0  0  0  0  0  0  0  0  0  0
    7.0622    1.2500    0.0000 C   0  0  0  0  0  0  0  0  0  0  0  0
    7.1962    3.7500    0.0000 C   0  0  0  0  0  0  0  0  0  0  0  0
    8.0622    4.2500    0.0000 C   0  0  0  0  0  0  0  0  0  0  0  0
    4.5981    0.2500    0.0000 C   0  0  0  0  0  0  0  0  0  0  0  0
    8.0622    5.2500    0.0000 C   0  0  0  0  0  0  0  0  0  0  0  0
    8.9282   -1.2500    0.0000 C   0  0  0  0  0  0  0  0  0  0  0  0
    5.4641   -3.2500    0.0000 C   0  0  0  0  0  0  0  0  0  0  0  0
    3.7320   -1.2500    0.0000 C   0  0  0  0  0  0  0  0  0  0  0  0
    9.7942   -1.7500    0.0000 C   0  0  0  0  0  0  0  0  0  0  0  0
    5.4641   -4.2500    0.0000 C   0  0  0  0  0  0  0  0  0  0  0  0
    3.7320    1.7500    0.0000 C   0  0  0  0  0  0  0  0  0  0  0  0
    2.8660   -1.7500    0.0000 C   0  0  0  0  0  0  0  0  0  0  0  0
    3.7320    2.7500    0.0000 C   0  0  0  0  0  0  0  0  0  0  0  0
    7.5252    1.9400    0.0000 H   0  0  0  0  0  0  0  0  0  0  0  0
    7.7331   -0.5600    0.0000 H   0  0  0  0  0  0  0  0  0  0  0  0
    7.1962   -1.8700    0.0000 H   0  0  0  0  0  0  0  0  0  0  0  0
    5.7932   -2.0600    0.0000 H   0  0  0  0  0  0  0  0  0  0  0  0
    9.1403    2.1674    0.0000 H   0  0  0  0  0  0  0  0  0  0  0  0
    9.5388    2.8577    0.0000 H   0  0  0  0  0  0  0  0  0  0  0  0
    5.4641   -1.8700    0.0000 H   0  0  0  0  0  0  0  0  0  0  0  0
    6.5856    2.8577    0.0000 H   0  0  0  0  0  0  0  0  0  0  0  0
    6.9841    2.1674    0.0000 H   0  0  0  0  0  0  0  0  0  0  0  0
    5.4641    0.3700    0.0000 H   0  0  0  0  0  0  0  0  0  0  0  0
    9.5388    3.6423    0.0000 H   0  0  0  0  0  0  0  0  0  0  0  0
    9.1403    4.3326    0.0000 H   0  0  0  0  0  0  0  0  0  0  0  0
    9.0622    0.6300    0.0000 H   0  0  0  0  0  0  0  0  0  0  0  0
    9.6822    1.2500    0.0000 H   0  0  0  0  0  0  0  0  0  0  0  0
    9.0622    1.8700    0.0000 H   0  0  0  0  0  0  0  0  0  0  0  0
    7.0622    1.8700    0.0000 H   0  0  0  0  0  0  0  0  0  0  0  0
    6.4422    1.2500    0.0000 H   0  0  0  0  0  0  0  0  0  0  0  0
    7.0622    0.6300    0.0000 H   0  0  0  0  0  0  0  0  0  0  0  0
    6.6592    4.0600    0.0000 H   0  0  0  0  0  0  0  0  0  0  0  0
    3.9875    0.3577    0.0000 H   0  0  0  0  0  0  0  0  0  0  0  0
    4.3860   -0.3326    0.0000 H   0  0  0  0  0  0  0  0  0  0  0  0
    8.6822    5.2500    0.0000 H   0  0  0  0  0  0  0  0  0  0  0  0
    8.0622    5.8700    0.0000 H   0  0  0  0  0  0  0  0  0  0  0  0
    7.4422    5.2500    0.0000 H   0  0  0  0  0  0  0  0  0  0  0  0
  1 42  1  0  0  0  0
  2 42  1  0  0  0  0
  3 42  1  0  0  0  0
  4 43  1  0  0  0  0
  5 43  1  0  0  0  0
  6 43  1  0  0  0  0
  7 45  1  0  0  0  0
  8 45  1  0  0  0  0
  9 45  1  0  0  0  0
 10 46  1  0  0  0  0
 11 46  1  0  0  0  0
 12 46  1  0  0  0  0
 13 24  1  0  0  0  0
 13 25  1  0  0  0  0
 14 25  1  0  0  0  0
 14 31  1  0  0  0  0
 15 26  1  0  0  0  0
 15 39  1  0  0  0  0
 16 27  1  0  0  0  0
 16 40  1  0  0  0  0
 17 29  1  0  0  0  0
 17 41  1  0  0  0  0
 18 37  1  0  0  0  0
 18 44  1  0  0  0  0
 19 39  2  0  0  0  0
 20 40  2  0  0  0  0
 21 41  2  0  0  0  0
 22 44  2  0  0  0  0
 23 24  1  0  0  0  0
 23 28  1  0  0  0  0
 23 30  1  0  0  0  0
 23 47  1  0  0  0  0
 24 33  1  0  0  0  0
 24 34  1  0  0  0  0
 25 26  1  0  0  0  0
 25 48  1  0  0  0  0
 26 27  1  0  0  0  0
 26 49  1  0  0  0  0
 27 29  1  0  0  0  0
 27 50  1  0  0  0  0
 28 32  1  0  0  0  0
 28 51  1  0  0  0  0
 28 52  1  0  0  0  0
 29 31  1  0  0  0  0
 29 53  1  0  0  0  0
 30 35  1  0  0  0  0
 30 54  1  0  0  0  0
 30 55  1  0  0  0  0
 31 37  1  0  0  0  0
 31 56  1  0  0  0  0
 32 36  1  0  0  0  0
 32 57  1  0  0  0  0
 32 58  1  0  0  0  0
 33 59  1  0  0  0  0
 33 60  1  0  0  0  0
 33 61  1  0  0  0  0
 34 62  1  0  0  0  0
 34 63  1  0  0  0  0
 34 64  1  0  0  0  0
 35 36  2  0  0  0  0
 35 65  1  0  0  0  0
 36 38  1  0  0  0  0
 37 66  1  0  0  0  0
 37 67  1  0  0  0  0
 38 68  1  0  0  0  0
 38 69  1  0  0  0  0
 38 70  1  0  0  0  0
 39 42  1  0  0  0  0
 40 43  1  0  0  0  0
 41 45  1  0  0  0  0
 44 46  1  0  0  0  0
M  END
> <PUBCHEM_COMPOUND_CID>
526745
> <PUBCHEM_COMPOUND_CANONICALIZED>
1
> <PUBCHEM_CACTVS_COMPLEXITY>
1170
> <PUBCHEM_CACTVS_HBOND_ACCEPTOR>
22
> <PUBCHEM_CACTVS_HBOND_DONOR>
0
> <PUBCHEM_CACTVS_ROTATABLE_BOND>
12
> <PUBCHEM_CACTVS_SUBSKEYS>
AAADceB4PcAAAAAAAAAAAAAAAAAAAAAAAAAkQAAAAAAAAAAAAAAAGwAAAAAADVSwgBMCCAAABACIAiDSCAAAAAAgAAAACAAAAAgRAAIAAQAiAAAFgAAOAAPA4EwOgAAAAAAAAAAAAAAAAAAAAAAAAAAAAA==
> <PUBCHEM_IUPAC_OPENEYE_NAME>
[6-[1-methyl-1-(4-methylcyclohex-3-en-1-yl)ethoxy]-3,4,5-tris[(2,2,2-trifluoroacetyl)oxy]tetrahydropyran-2-yl]methyl 2,2,2-trifluoroacetate
> <PUBCHEM_IUPAC_CAS_NAME>
2,2,2-trifluoroacetic acid [6-[2-(4-methyl-1-cyclohex-3-enyl)propan-2-yloxy]-3,4,5-tris(2,2,2-trifluoro-1-oxoethoxy)-2-oxanyl]methyl ester
> <PUBCHEM_IUPAC_NAME_MARKUP>
[6-[2-(4-methylcyclohex-3-en-1-yl)propan-2-yloxy]-3,4,5-tris[(2,2,2-trifluoroacetyl)oxy]oxan-2-yl]methyl 2,2,2-trifluoroacetate
> <PUBCHEM_IUPAC_NAME>
[6-[2-(4-methylcyclohex-3-en-1-yl)propan-2-yloxy]-3,4,5-tris[(2,2,2-trifluoroacetyl)oxy]oxan-2-yl]methyl 2,2,2-trifluoroacetate
> <PUBCHEM_IUPAC_SYSTEMATIC_NAME>
[6-[2-(4-methylcyclohex-3-en-1-yl)propan-2-yloxy]-3,4,5-tris[2,2,2-tris(fluoranyl)ethanoyloxy]oxan-2-yl]methyl 2,2,2-tris(fluoranyl)ethanoate
> <PUBCHEM_IUPAC_TRADITIONAL_NAME>
2,2,2-trifluoroacetic acid [6-[1-methyl-1-(4-methylcyclohex-3-en-1-yl)ethoxy]-3,4,5-tris[(2,2,2-trifluoroacetyl)oxy]tetrahydropyran-2-yl]methyl ester
> <PUBCHEM_IUPAC_INCHI>
InChI=1S/C24H24F12O10/c1-9-4-6-10(7-5-9)20(2,3)46-15-14(45-19(40)24(34,35)36)13(44-18(39)23(31,32)33)12(43-17(38)22(28,29)30)11(42-15)8-41-16(37)21(25,26)27/h4,10-15H,5-8H2,1-3H3
> <PUBCHEM_IUPAC_INCHIKEY>
DMNHAEJEIAAJSG-UHFFFAOYSA-N
> <PUBCHEM_XLOGP3_AA>
6.5
> <PUBCHEM_EXACT_MASS>
700.1177849
> <PUBCHEM_MOLECULAR_FORMULA>
C24H24F12O10
> <PUBCHEM_MOLECULAR_WEIGHT>
700.4
> <PUBCHEM_OPENEYE_CAN_SMILES>
CC1=CCC(CC1)C(C)(C)OC2C(C(C(C(O2)COC(=O)C(F)(F)F)OC(=O)C(F)(F)F)OC(=O)C(F)(F)F)OC(=O)C(F)(F)F
> <PUBCHEM_OPENEYE_ISO_SMILES>
CC1=CCC(CC1)C(C)(C)OC2C(C(C(C(O2)COC(=O)C(F)(F)F)OC(=O)C(F)(F)F)OC(=O)C(F)(F)F)OC(=O)C(F)(F)F
> <PUBCHEM_CACTVS_TPSA>
124
> <PUBCHEM_MONOISOTOPIC_WEIGHT>
700.1177849
> <PUBCHEM_TOTAL_CHARGE>
0
> <PUBCHEM_HEAVY_ATOM_COUNT>
46
> <PUBCHEM_ATOM_DEF_STEREO_COUNT>
0
> <PUBCHEM_ATOM_UDEF_STEREO_COUNT>
6
> <PUBCHEM_BOND_DEF_STEREO_COUNT>
0
> <PUBCHEM_BOND_UDEF_STEREO_COUNT>
0
> <PUBCHEM_ISOTOPIC_ATOM_COUNT>
0
> <PUBCHEM_COMPONENT_COUNT>
1
> <PUBCHEM_CACTVS_TAUTO_COUNT>
-1
> <PUBCHEM_COORDINATE_TYPE>
1
5
255
> <PUBCHEM_BONDANNOTATIONS>
25  13  3
26  15  3
27  16  3
29  17  3
23  24  3
31  37  3
$$$$
