526780
  -OEChem-10302200292D
 87 86  0     1  0  0  0  0  0999 V2000
   12.3923   -3.8170    0.0000 Si  0  0  0  0  0  0  0  0  0  0  0  0
   11.5263   -4.3170    0.0000 O   0  0  0  0  0  0  0  0  0  0  0  0
    2.8660   -4.3170    0.0000 O   0  0  0  0  0  0  0  0  0  0  0  0
    3.7320   -2.8170    0.0000 O   0  0  0  0  0  0  0  0  0  0  0  0
   13.2583   -3.3170    0.0000 C   0  0  0  0  0  0  0  0  0  0  0  0
   10.6603   -3.8170    0.0000 C   0  0  3  0  0  0  0  0  0  0  0  0
   10.6603   -2.8170    0.0000 C   0  0  0  0  0  0  0  0  0  0  0  0
    9.7942   -4.3170    0.0000 C   0  0  0  0  0  0  0  0  0  0  0  0
   11.8923   -2.9510    0.0000 C   0  0  0  0  0  0  0  0  0  0  0  0
   12.8923   -4.6830    0.0000 C   0  0  0  0  0  0  0  0  0  0  0  0
   14.1244   -2.8170    0.0000 C   0  0  0  0  0  0  0  0  0  0  0  0
   12.7583   -2.4510    0.0000 C   0  0  0  0  0  0  0  0  0  0  0  0
   13.7583   -4.1830    0.0000 C   0  0  0  0  0  0  0  0  0  0  0  0
    9.7942   -2.3170    0.0000 C   0  0  0  0  0  0  0  0  0  0  0  0
    8.9282   -3.8170    0.0000 C   0  0  0  0  0  0  0  0  0  0  0  0
    9.7942   -1.3170    0.0000 C   0  0  0  0  0  0  0  0  0  0  0  0
    8.0622   -4.3170    0.0000 C   0  0  0  0  0  0  0  0  0  0  0  0
    8.9282   -0.8170    0.0000 C   0  0  0  0  0  0  0  0  0  0  0  0
    7.1962   -3.8170    0.0000 C   0  0  0  0  0  0  0  0  0  0  0  0
    8.9282    0.1830    0.0000 C   0  0  0  0  0  0  0  0  0  0  0  0
    8.0622    0.6830    0.0000 C   0  0  0  0  0  0  0  0  0  0  0  0
    6.3301   -4.3170    0.0000 C   0  0  0  0  0  0  0  0  0  0  0  0
    8.0622    1.6830    0.0000 C   0  0  0  0  0  0  0  0  0  0  0  0
    5.4641   -3.8170    0.0000 C   0  0  0  0  0  0  0  0  0  0  0  0
    7.1962    2.1830    0.0000 C   0  0  0  0  0  0  0  0  0  0  0  0
    7.1962    3.1830    0.0000 C   0  0  0  0  0  0  0  0  0  0  0  0
    4.5981   -4.3170    0.0000 C   0  0  0  0  0  0  0  0  0  0  0  0
    6.3301    3.6830    0.0000 C   0  0  0  0  0  0  0  0  0  0  0  0
    3.7320   -3.8170    0.0000 C   0  0  0  0  0  0  0  0  0  0  0  0
    6.3301    4.6830    0.0000 C   0  0  0  0  0  0  0  0  0  0  0  0
    2.0000   -3.8170    0.0000 C   0  0  0  0  0  0  0  0  0  0  0  0
   11.1972   -3.5070    0.0000 H   0  0  0  0  0  0  0  0  0  0  0  0
   11.2708   -2.9247    0.0000 H   0  0  0  0  0  0  0  0  0  0  0  0
   10.8723   -2.2344    0.0000 H   0  0  0  0  0  0  0  0  0  0  0  0
    9.3957   -4.7919    0.0000 H   0  0  0  0  0  0  0  0  0  0  0  0
   10.1928   -4.7919    0.0000 H   0  0  0  0  0  0  0  0  0  0  0  0
   12.4292   -2.6410    0.0000 H   0  0  0  0  0  0  0  0  0  0  0  0
   11.5823   -2.4140    0.0000 H   0  0  0  0  0  0  0  0  0  0  0  0
   11.3554   -3.2610    0.0000 H   0  0  0  0  0  0  0  0  0  0  0  0
   12.3554   -4.9930    0.0000 H   0  0  0  0  0  0  0  0  0  0  0  0
   13.2023   -5.2200    0.0000 H   0  0  0  0  0  0  0  0  0  0  0  0
   13.4292   -4.3730    0.0000 H   0  0  0  0  0  0  0  0  0  0  0  0
   14.4344   -3.3539    0.0000 H   0  0  0  0  0  0  0  0  0  0  0  0
   14.6613   -2.5070    0.0000 H   0  0  0  0  0  0  0  0  0  0  0  0
   13.8144   -2.2800    0.0000 H   0  0  0  0  0  0  0  0  0  0  0  0
   13.2953   -2.1410    0.0000 H   0  0  0  0  0  0  0  0  0  0  0  0
   12.4483   -1.9140    0.0000 H   0  0  0  0  0  0  0  0  0  0  0  0
   12.2214   -2.7610    0.0000 H   0  0  0  0  0  0  0  0  0  0  0  0
   13.2214   -4.4930    0.0000 H   0  0  0  0  0  0  0  0  0  0  0  0
   14.0683   -4.7200    0.0000 H   0  0  0  0  0  0  0  0  0  0  0  0
   14.2953   -3.8730    0.0000 H   0  0  0  0  0  0  0  0  0  0  0  0
    9.1836   -2.2093    0.0000 H   0  0  0  0  0  0  0  0  0  0  0  0
    9.5822   -2.8996    0.0000 H   0  0  0  0  0  0  0  0  0  0  0  0
    9.3267   -3.3420    0.0000 H   0  0  0  0  0  0  0  0  0  0  0  0
    8.5297   -3.3420    0.0000 H   0  0  0  0  0  0  0  0  0  0  0  0
   10.4048   -1.4246    0.0000 H   0  0  0  0  0  0  0  0  0  0  0  0
   10.0063   -0.7344    0.0000 H   0  0  0  0  0  0  0  0  0  0  0  0
    7.6636   -4.7919    0.0000 H   0  0  0  0  0  0  0  0  0  0  0  0
    8.4607   -4.7919    0.0000 H   0  0  0  0  0  0  0  0  0  0  0  0
    8.3176   -0.7093    0.0000 H   0  0  0  0  0  0  0  0  0  0  0  0
    8.7162   -1.3996    0.0000 H   0  0  0  0  0  0  0  0  0  0  0  0
    7.5947   -3.3420    0.0000 H   0  0  0  0  0  0  0  0  0  0  0  0
    6.7976   -3.3420    0.0000 H   0  0  0  0  0  0  0  0  0  0  0  0
    9.5388    0.0754    0.0000 H   0  0  0  0  0  0  0  0  0  0  0  0
    9.1403    0.7656    0.0000 H   0  0  0  0  0  0  0  0  0  0  0  0
    7.4516    0.7907    0.0000 H   0  0  0  0  0  0  0  0  0  0  0  0
    7.8501    0.1004    0.0000 H   0  0  0  0  0  0  0  0  0  0  0  0
    5.9316   -4.7919    0.0000 H   0  0  0  0  0  0  0  0  0  0  0  0
    6.7287   -4.7919    0.0000 H   0  0  0  0  0  0  0  0  0  0  0  0
    8.6728    1.5754    0.0000 H   0  0  0  0  0  0  0  0  0  0  0  0
    8.2742    2.2656    0.0000 H   0  0  0  0  0  0  0  0  0  0  0  0
    5.8626   -3.3420    0.0000 H   0  0  0  0  0  0  0  0  0  0  0  0
    5.0656   -3.3420    0.0000 H   0  0  0  0  0  0  0  0  0  0  0  0
    6.5856    2.2907    0.0000 H   0  0  0  0  0  0  0  0  0  0  0  0
    6.9841    1.6004    0.0000 H   0  0  0  0  0  0  0  0  0  0  0  0
    7.8067    3.0753    0.0000 H   0  0  0  0  0  0  0  0  0  0  0  0
    7.4082    3.7656    0.0000 H   0  0  0  0  0  0  0  0  0  0  0  0
    4.1996   -4.7919    0.0000 H   0  0  0  0  0  0  0  0  0  0  0  0
    4.9966   -4.7919    0.0000 H   0  0  0  0  0  0  0  0  0  0  0  0
    5.7196    3.7907    0.0000 H   0  0  0  0  0  0  0  0  0  0  0  0
    6.1181    3.1004    0.0000 H   0  0  0  0  0  0  0  0  0  0  0  0
    6.9501    4.6830    0.0000 H   0  0  0  0  0  0  0  0  0  0  0  0
    6.3301    5.3030    0.0000 H   0  0  0  0  0  0  0  0  0  0  0  0
    5.7101    4.6830    0.0000 H   0  0  0  0  0  0  0  0  0  0  0  0
    2.3100   -3.2800    0.0000 H   0  0  0  0  0  0  0  0  0  0  0  0
    1.4631   -3.5070    0.0000 H   0  0  0  0  0  0  0  0  0  0  0  0
    1.6900   -4.3539    0.0000 H   0  0  0  0  0  0  0  0  0  0  0  0
  1  2  1  0  0  0  0
  1  5  1  0  0  0  0
  1  9  1  0  0  0  0
  1 10  1  0  0  0  0
  2  6  1  0  0  0  0
  3 29  1  0  0  0  0
  3 31  1  0  0  0  0
  4 29  2  0  0  0  0
  5 11  1  0  0  0  0
  5 12  1  0  0  0  0
  5 13  1  0  0  0  0
  6  7  1  0  0  0  0
  6  8  1  0  0  0  0
  6 32  1  0  0  0  0
  7 14  1  0  0  0  0
  7 33  1  0  0  0  0
  7 34  1  0  0  0  0
  8 15  1  0  0  0  0
  8 35  1  0  0  0  0
  8 36  1  0  0  0  0
  9 37  1  0  0  0  0
  9 38  1  0  0  0  0
  9 39  1  0  0  0  0
 10 40  1  0  0  0  0
 10 41  1  0  0  0  0
 10 42  1  0  0  0  0
 11 43  1  0  0  0  0
 11 44  1  0  0  0  0
 11 45  1  0  0  0  0
 12 46  1  0  0  0  0
 12 47  1  0  0  0  0
 12 48  1  0  0  0  0
 13 49  1  0  0  0  0
 13 50  1  0  0  0  0
 13 51  1  0  0  0  0
 14 16  1  0  0  0  0
 14 52  1  0  0  0  0
 14 53  1  0  0  0  0
 15 17  1  0  0  0  0
 15 54  1  0  0  0  0
 15 55  1  0  0  0  0
 16 18  1  0  0  0  0
 16 56  1  0  0  0  0
 16 57  1  0  0  0  0
 17 19  1  0  0  0  0
 17 58  1  0  0  0  0
 17 59  1  0  0  0  0
 18 20  1  0  0  0  0
 18 60  1  0  0  0  0
 18 61  1  0  0  0  0
 19 22  1  0  0  0  0
 19 62  1  0  0  0  0
 19 63  1  0  0  0  0
 20 21  1  0  0  0  0
 20 64  1  0  0  0  0
 20 65  1  0  0  0  0
 21 23  1  0  0  0  0
 21 66  1  0  0  0  0
 21 67  1  0  0  0  0
 22 24  1  0  0  0  0
 22 68  1  0  0  0  0
 22 69  1  0  0  0  0
 23 25  1  0  0  0  0
 23 70  1  0  0  0  0
 23 71  1  0  0  0  0
 24 27  1  0  0  0  0
 24 72  1  0  0  0  0
 24 73  1  0  0  0  0
 25 26  1  0  0  0  0
 25 74  1  0  0  0  0
 25 75  1  0  0  0  0
 26 28  1  0  0  0  0
 26 76  1  0  0  0  0
 26 77  1  0  0  0  0
 27 29  1  0  0  0  0
 27 78  1  0  0  0  0
 27 79  1  0  0  0  0
 28 30  1  0  0  0  0
 28 80  1  0  0  0  0
 28 81  1  0  0  0  0
 30 82  1  0  0  0  0
 30 83  1  0  0  0  0
 30 84  1  0  0  0  0
 31 85  1  0  0  0  0
 31 86  1  0  0  0  0
 31 87  1  0  0  0  0
M  END
> <PUBCHEM_COMPOUND_CID>
526780
> <PUBCHEM_COMPOUND_CANONICALIZED>
1
> <PUBCHEM_CACTVS_COMPLEXITY>
429
> <PUBCHEM_CACTVS_HBOND_ACCEPTOR>
3
> <PUBCHEM_CACTVS_HBOND_DONOR>
0
> <PUBCHEM_CACTVS_ROTATABLE_BOND>
22
> <PUBCHEM_CACTVS_SUBSKEYS>
AAADcfB4MAgAAAAAAAAAAAAAAAAAAAAAAAAAAAAAAAAAAAAAAAAAGhAAAEAADBSgoAJCCAAABAEIAACQCAAAAAAAAAAAAAEAAAAAABIAAAAAAAAEAAAAAAGIyKCAAAAAAAAAAAAAAAAAAAAAAAAAAAAAAA==
> <PUBCHEM_IUPAC_OPENEYE_NAME>
methyl 9-[tert-butyl(dimethyl)silyl]oxyicosanoate
> <PUBCHEM_IUPAC_CAS_NAME>
9-[tert-butyl(dimethyl)silyl]oxyeicosanoic acid methyl ester
> <PUBCHEM_IUPAC_NAME_MARKUP>
methyl 9-[<I>tert</I>-butyl(dimethyl)silyl]oxyicosanoate
> <PUBCHEM_IUPAC_NAME>
methyl 9-[tert-butyl(dimethyl)silyl]oxyicosanoate
> <PUBCHEM_IUPAC_SYSTEMATIC_NAME>
methyl 9-[tert-butyl(dimethyl)silyl]oxyicosanoate
> <PUBCHEM_IUPAC_TRADITIONAL_NAME>
9-[tert-butyl(dimethyl)silyl]oxyarachidic acid methyl ester
> <PUBCHEM_IUPAC_INCHI>
InChI=1S/C27H56O3Si/c1-8-9-10-11-12-13-14-16-19-22-25(30-31(6,7)27(2,3)4)23-20-17-15-18-21-24-26(28)29-5/h25H,8-24H2,1-7H3
> <PUBCHEM_IUPAC_INCHIKEY>
DOONBUIHDCIIJB-UHFFFAOYSA-N
> <PUBCHEM_EXACT_MASS>
456.39987218
> <PUBCHEM_MOLECULAR_FORMULA>
C27H56O3Si
> <PUBCHEM_MOLECULAR_WEIGHT>
456.8
> <PUBCHEM_OPENEYE_CAN_SMILES>
CCCCCCCCCCCC(CCCCCCCC(=O)OC)O[Si](C)(C)C(C)(C)C
> <PUBCHEM_OPENEYE_ISO_SMILES>
CCCCCCCCCCCC(CCCCCCCC(=O)OC)O[Si](C)(C)C(C)(C)C
> <PUBCHEM_CACTVS_TPSA>
35.5
> <PUBCHEM_MONOISOTOPIC_WEIGHT>
456.39987218
> <PUBCHEM_TOTAL_CHARGE>
0
> <PUBCHEM_HEAVY_ATOM_COUNT>
31
> <PUBCHEM_ATOM_DEF_STEREO_COUNT>
0
> <PUBCHEM_ATOM_UDEF_STEREO_COUNT>
1
> <PUBCHEM_BOND_DEF_STEREO_COUNT>
0
> <PUBCHEM_BOND_UDEF_STEREO_COUNT>
0
> <PUBCHEM_ISOTOPIC_ATOM_COUNT>
0
> <PUBCHEM_COMPONENT_COUNT>
1
> <PUBCHEM_CACTVS_TAUTO_COUNT>
-1
> <PUBCHEM_COORDINATE_TYPE>
1
5
255
> <PUBCHEM_BONDANNOTATIONS>
6  7  3
$$$$
