526767
  -OEChem-10302200292D
 35 34  0     1  0  0  0  0  0999 V2000
    6.8671   -0.7780    0.0000 O   0  0  0  0  0  0  0  0  0  0  0  0
    2.5369   -0.2780    0.0000 O   0  0  0  0  0  0  0  0  0  0  0  0
    5.1350    0.2220    0.0000 C   0  0  0  0  0  0  0  0  0  0  0  0
    6.0010    0.7220    0.0000 C   0  0  0  0  0  0  0  0  0  0  0  0
    4.2690   -0.2780    0.0000 C   0  0  0  0  0  0  0  0  0  0  0  0
    4.6350    1.0880    0.0000 C   0  0  0  0  0  0  0  0  0  0  0  0
    5.6350   -0.6440    0.0000 C   0  0  0  0  0  0  0  0  0  0  0  0
    6.8671    0.2220    0.0000 C   0  0  3  0  0  0  0  0  0  0  0  0
    3.4030    0.2220    0.0000 C   0  0  0  0  0  0  0  0  0  0  0  0
    7.7331    0.7220    0.0000 C   0  0  0  0  0  0  0  0  0  0  0  0
    8.5991    0.2220    0.0000 C   0  0  0  0  0  0  0  0  0  0  0  0
    9.4651    0.7220    0.0000 C   0  0  0  0  0  0  0  0  0  0  0  0
    8.5991   -0.7780    0.0000 C   0  0  0  0  0  0  0  0  0  0  0  0
    6.3996    1.1969    0.0000 H   0  0  0  0  0  0  0  0  0  0  0  0
    5.6025    1.1969    0.0000 H   0  0  0  0  0  0  0  0  0  0  0  0
    3.8705   -0.7530    0.0000 H   0  0  0  0  0  0  0  0  0  0  0  0
    4.6675   -0.7530    0.0000 H   0  0  0  0  0  0  0  0  0  0  0  0
    5.1720    1.3980    0.0000 H   0  0  0  0  0  0  0  0  0  0  0  0
    4.3250    1.6249    0.0000 H   0  0  0  0  0  0  0  0  0  0  0  0
    4.0981    0.7780    0.0000 H   0  0  0  0  0  0  0  0  0  0  0  0
    5.0981   -0.9540    0.0000 H   0  0  0  0  0  0  0  0  0  0  0  0
    5.9450   -1.1810    0.0000 H   0  0  0  0  0  0  0  0  0  0  0  0
    6.1720   -0.3340    0.0000 H   0  0  0  0  0  0  0  0  0  0  0  0
    6.3301   -0.0880    0.0000 H   0  0  0  0  0  0  0  0  0  0  0  0
    3.8015    0.6969    0.0000 H   0  0  0  0  0  0  0  0  0  0  0  0
    3.0044    0.6969    0.0000 H   0  0  0  0  0  0  0  0  0  0  0  0
    7.7331    1.3420    0.0000 H   0  0  0  0  0  0  0  0  0  0  0  0
    7.4040   -1.0880    0.0000 H   0  0  0  0  0  0  0  0  0  0  0  0
    2.0000    0.0320    0.0000 H   0  0  0  0  0  0  0  0  0  0  0  0
    9.7751    0.1851    0.0000 H   0  0  0  0  0  0  0  0  0  0  0  0
   10.0021    1.0320    0.0000 H   0  0  0  0  0  0  0  0  0  0  0  0
    9.1551    1.2589    0.0000 H   0  0  0  0  0  0  0  0  0  0  0  0
    7.9791   -0.7780    0.0000 H   0  0  0  0  0  0  0  0  0  0  0  0
    8.5991   -1.3980    0.0000 H   0  0  0  0  0  0  0  0  0  0  0  0
    9.2191   -0.7780    0.0000 H   0  0  0  0  0  0  0  0  0  0  0  0
  1  8  1  0  0  0  0
  1 28  1  0  0  0  0
  2  9  1  0  0  0  0
  2 29  1  0  0  0  0
  3  4  1  0  0  0  0
  3  5  1  0  0  0  0
  3  6  1  0  0  0  0
  3  7  1  0  0  0  0
  4  8  1  0  0  0  0
  4 14  1  0  0  0  0
  4 15  1  0  0  0  0
  5  9  1  0  0  0  0
  5 16  1  0  0  0  0
  5 17  1  0  0  0  0
  6 18  1  0  0  0  0
  6 19  1  0  0  0  0
  6 20  1  0  0  0  0
  7 21  1  0  0  0  0
  7 22  1  0  0  0  0
  7 23  1  0  0  0  0
  8 10  1  0  0  0  0
  8 24  1  0  0  0  0
  9 25  1  0  0  0  0
  9 26  1  0  0  0  0
 10 11  2  0  0  0  0
 10 27  1  0  0  0  0
 11 12  1  0  0  0  0
 11 13  1  0  0  0  0
 12 30  1  0  0  0  0
 12 31  1  0  0  0  0
 12 32  1  0  0  0  0
 13 33  1  0  0  0  0
 13 34  1  0  0  0  0
 13 35  1  0  0  0  0
M  END
> <PUBCHEM_COMPOUND_CID>
526767
> <PUBCHEM_COMPOUND_CANONICALIZED>
1
> <PUBCHEM_CACTVS_COMPLEXITY>
167
> <PUBCHEM_CACTVS_HBOND_ACCEPTOR>
2
> <PUBCHEM_CACTVS_HBOND_DONOR>
2
> <PUBCHEM_CACTVS_ROTATABLE_BOND>
5
> <PUBCHEM_CACTVS_SUBSKEYS>
AAADceBwMAAAAAAAAAAAAAAAAAAAAAAAAAAAAAAAAAAAAAAAAAAAGgAACAAADhSggAICAAAAAgCAAiBCAAAAAAAgAAAACAAAAAgAFAIAAQAAUAAEgAAIEAOAYAQPAAAAAAAAAAAAAAAAAAAAAAAAAAAAAA==
> <PUBCHEM_IUPAC_OPENEYE_NAME>
3,3,7-trimethyloct-6-ene-1,5-diol
> <PUBCHEM_IUPAC_CAS_NAME>
3,3,7-trimethyl-6-octene-1,5-diol
> <PUBCHEM_IUPAC_NAME_MARKUP>
3,3,7-trimethyloct-6-ene-1,5-diol
> <PUBCHEM_IUPAC_NAME>
3,3,7-trimethyloct-6-ene-1,5-diol
> <PUBCHEM_IUPAC_SYSTEMATIC_NAME>
3,3,7-trimethyloct-6-ene-1,5-diol
> <PUBCHEM_IUPAC_TRADITIONAL_NAME>
3,3,7-trimethyloct-6-ene-1,5-diol
> <PUBCHEM_IUPAC_INCHI>
InChI=1S/C11H22O2/c1-9(2)7-10(13)8-11(3,4)5-6-12/h7,10,12-13H,5-6,8H2,1-4H3
> <PUBCHEM_IUPAC_INCHIKEY>
HVCWFSIXTUOOBZ-UHFFFAOYSA-N
> <PUBCHEM_XLOGP3_AA>
2.3
> <PUBCHEM_EXACT_MASS>
186.161979940
> <PUBCHEM_MOLECULAR_FORMULA>
C11H22O2
> <PUBCHEM_MOLECULAR_WEIGHT>
186.29
> <PUBCHEM_OPENEYE_CAN_SMILES>
CC(=CC(CC(C)(C)CCO)O)C
> <PUBCHEM_OPENEYE_ISO_SMILES>
CC(=CC(CC(C)(C)CCO)O)C
> <PUBCHEM_CACTVS_TPSA>
40.5
> <PUBCHEM_MONOISOTOPIC_WEIGHT>
186.161979940
> <PUBCHEM_TOTAL_CHARGE>
0
> <PUBCHEM_HEAVY_ATOM_COUNT>
13
> <PUBCHEM_ATOM_DEF_STEREO_COUNT>
0
> <PUBCHEM_ATOM_UDEF_STEREO_COUNT>
1
> <PUBCHEM_BOND_DEF_STEREO_COUNT>
0
> <PUBCHEM_BOND_UDEF_STEREO_COUNT>
0
> <PUBCHEM_ISOTOPIC_ATOM_COUNT>
0
> <PUBCHEM_COMPONENT_COUNT>
1
> <PUBCHEM_CACTVS_TAUTO_COUNT>
-1
> <PUBCHEM_COORDINATE_TYPE>
1
5
255
> <PUBCHEM_BONDANNOTATIONS>
8  1  3
$$$$
