526758
  -OEChem-10302200292D
 48 48  0     1  0  0  0  0  0999 V2000
    7.5780   -0.6654    0.0000 O   0  0  0  0  0  0  0  0  0  0  0  0
    9.0782   -1.2249    0.0000 O   0  0  0  0  0  0  0  0  0  0  0  0
    6.6185   -0.3836    0.0000 C   0  0  3  0  0  0  0  0  0  0  0  0
    5.9637    0.3721    0.0000 C   0  0  0  0  0  0  0  0  0  0  0  0
    5.8214    1.3620    0.0000 C   0  0  0  0  0  0  0  0  0  0  0  0
    6.0779   -1.2249    0.0000 C   0  0  0  0  0  0  0  0  0  0  0  0
    6.2368    2.2716    0.0000 C   0  0  0  0  0  0  0  0  0  0  0  0
    7.0780    2.8122    0.0000 C   0  0  0  0  0  0  0  0  0  0  0  0
    5.0790   -1.1773    0.0000 C   0  0  0  0  0  0  0  0  0  0  0  0
    8.0780    2.8122    0.0000 C   0  0  0  0  0  0  0  0  0  0  0  0
    8.9193    2.2716    0.0000 C   0  0  0  0  0  0  0  0  0  0  0  0
    4.5384   -2.0186    0.0000 C   0  0  0  0  0  0  0  0  0  0  0  0
    9.3347    1.3620    0.0000 C   0  0  0  0  0  0  0  0  0  0  0  0
    9.1924    0.3721    0.0000 C   0  0  0  0  0  0  0  0  0  0  0  0
    3.5395   -1.9710    0.0000 C   0  0  0  0  0  0  0  0  0  0  0  0
    8.5375   -0.3836    0.0000 C   0  0  0  0  0  0  0  0  0  0  0  0
    2.9989   -2.8122    0.0000 C   0  0  0  0  0  0  0  0  0  0  0  0
    2.0000   -2.7646    0.0000 C   0  0  0  0  0  0  0  0  0  0  0  0
    6.8352   -0.9645    0.0000 H   0  0  0  0  0  0  0  0  0  0  0  0
    5.3549    0.4895    0.0000 H   0  0  0  0  0  0  0  0  0  0  0  0
    6.5276    0.6297    0.0000 H   0  0  0  0  0  0  0  0  0  0  0  0
    5.3726    1.7898    0.0000 H   0  0  0  0  0  0  0  0  0  0  0  0
    6.4350    1.2737    0.0000 H   0  0  0  0  0  0  0  0  0  0  0  0
    5.9413   -1.8296    0.0000 H   0  0  0  0  0  0  0  0  0  0  0  0
    6.6497   -1.4644    0.0000 H   0  0  0  0  0  0  0  0  0  0  0  0
    6.0906    2.8741    0.0000 H   0  0  0  0  0  0  0  0  0  0  0  0
    6.7053    1.8656    0.0000 H   0  0  0  0  0  0  0  0  0  0  0  0
    7.2808    3.3981    0.0000 H   0  0  0  0  0  0  0  0  0  0  0  0
    7.2527    2.2173    0.0000 H   0  0  0  0  0  0  0  0  0  0  0  0
    5.2156   -0.5725    0.0000 H   0  0  0  0  0  0  0  0  0  0  0  0
    4.5072   -0.9378    0.0000 H   0  0  0  0  0  0  0  0  0  0  0  0
    8.5654    3.1955    0.0000 H   0  0  0  0  0  0  0  0  0  0  0  0
    7.9033    2.2173    0.0000 H   0  0  0  0  0  0  0  0  0  0  0  0
    9.5365    2.3305    0.0000 H   0  0  0  0  0  0  0  0  0  0  0  0
    8.4507    1.8656    0.0000 H   0  0  0  0  0  0  0  0  0  0  0  0
    4.4018   -2.6233    0.0000 H   0  0  0  0  0  0  0  0  0  0  0  0
    5.1102   -2.2581    0.0000 H   0  0  0  0  0  0  0  0  0  0  0  0
    9.8858    1.0778    0.0000 H   0  0  0  0  0  0  0  0  0  0  0  0
    8.7210    1.2737    0.0000 H   0  0  0  0  0  0  0  0  0  0  0  0
    9.5024   -0.1648    0.0000 H   0  0  0  0  0  0  0  0  0  0  0  0
    8.6284    0.6297    0.0000 H   0  0  0  0  0  0  0  0  0  0  0  0
    3.6761   -1.3662    0.0000 H   0  0  0  0  0  0  0  0  0  0  0  0
    2.9676   -1.7314    0.0000 H   0  0  0  0  0  0  0  0  0  0  0  0
    2.8623   -3.4170    0.0000 H   0  0  0  0  0  0  0  0  0  0  0  0
    3.5707   -3.0518    0.0000 H   0  0  0  0  0  0  0  0  0  0  0  0
    2.0295   -2.1453    0.0000 H   0  0  0  0  0  0  0  0  0  0  0  0
    1.3807   -2.7351    0.0000 H   0  0  0  0  0  0  0  0  0  0  0  0
    1.9705   -3.3839    0.0000 H   0  0  0  0  0  0  0  0  0  0  0  0
  1  3  1  0  0  0  0
  1 16  1  0  0  0  0
  2 16  2  0  0  0  0
  3  4  1  0  0  0  0
  3  6  1  0  0  0  0
  3 19  1  0  0  0  0
  4  5  1  0  0  0  0
  4 20  1  0  0  0  0
  4 21  1  0  0  0  0
  5  7  1  0  0  0  0
  5 22  1  0  0  0  0
  5 23  1  0  0  0  0
  6  9  1  0  0  0  0
  6 24  1  0  0  0  0
  6 25  1  0  0  0  0
  7  8  1  0  0  0  0
  7 26  1  0  0  0  0
  7 27  1  0  0  0  0
  8 10  1  0  0  0  0
  8 28  1  0  0  0  0
  8 29  1  0  0  0  0
  9 12  1  0  0  0  0
  9 30  1  0  0  0  0
  9 31  1  0  0  0  0
 10 11  1  0  0  0  0
 10 32  1  0  0  0  0
 10 33  1  0  0  0  0
 11 13  1  0  0  0  0
 11 34  1  0  0  0  0
 11 35  1  0  0  0  0
 12 15  1  0  0  0  0
 12 36  1  0  0  0  0
 12 37  1  0  0  0  0
 13 14  1  0  0  0  0
 13 38  1  0  0  0  0
 13 39  1  0  0  0  0
 14 16  1  0  0  0  0
 14 40  1  0  0  0  0
 14 41  1  0  0  0  0
 15 17  1  0  0  0  0
 15 42  1  0  0  0  0
 15 43  1  0  0  0  0
 17 18  1  0  0  0  0
 17 44  1  0  0  0  0
 17 45  1  0  0  0  0
 18 46  1  0  0  0  0
 18 47  1  0  0  0  0
 18 48  1  0  0  0  0
M  END
> <PUBCHEM_COMPOUND_CID>
526758
> <PUBCHEM_COMPOUND_CANONICALIZED>
1
> <PUBCHEM_CACTVS_COMPLEXITY>
213
> <PUBCHEM_CACTVS_HBOND_ACCEPTOR>
2
> <PUBCHEM_CACTVS_HBOND_DONOR>
0
> <PUBCHEM_CACTVS_ROTATABLE_BOND>
5
> <PUBCHEM_CACTVS_SUBSKEYS>
AAADceB4MAAAAAAAAAAAAAAAAAAAAAAAAAAAAAAAAAAAAAAAAAAAGgAAAAAACBSggAICCAAABAAIAACQCAAAAAAAAAAAAAEAAAAAABIAAAACAAAEAAAAAAGIyKCAAAAAAAAAAAAAAAAAAAAAAAAAAAAAAA==
> <PUBCHEM_IUPAC_OPENEYE_NAME>
11-hexyl-oxacycloundecan-2-one
> <PUBCHEM_IUPAC_CAS_NAME>
11-hexyl-oxacycloundecan-2-one
> <PUBCHEM_IUPAC_NAME_MARKUP>
11-hexyl-oxacycloundecan-2-one
> <PUBCHEM_IUPAC_NAME>
11-hexyl-oxacycloundecan-2-one
> <PUBCHEM_IUPAC_SYSTEMATIC_NAME>
11-hexyl-1-oxacycloundecan-2-one
> <PUBCHEM_IUPAC_TRADITIONAL_NAME>
11-hexyl-oxacycloundecan-2-one
> <PUBCHEM_IUPAC_INCHI>
InChI=1S/C16H30O2/c1-2-3-4-9-12-15-13-10-7-5-6-8-11-14-16(17)18-15/h15H,2-14H2,1H3
> <PUBCHEM_IUPAC_INCHIKEY>
DNJTZERFZIMFQV-UHFFFAOYSA-N
> <PUBCHEM_XLOGP3>
5.6
> <PUBCHEM_EXACT_MASS>
254.224580195
> <PUBCHEM_MOLECULAR_FORMULA>
C16H30O2
> <PUBCHEM_MOLECULAR_WEIGHT>
254.41
> <PUBCHEM_OPENEYE_CAN_SMILES>
CCCCCCC1CCCCCCCCC(=O)O1
> <PUBCHEM_OPENEYE_ISO_SMILES>
CCCCCCC1CCCCCCCCC(=O)O1
> <PUBCHEM_CACTVS_TPSA>
26.3
> <PUBCHEM_MONOISOTOPIC_WEIGHT>
254.224580195
> <PUBCHEM_TOTAL_CHARGE>
0
> <PUBCHEM_HEAVY_ATOM_COUNT>
18
> <PUBCHEM_ATOM_DEF_STEREO_COUNT>
0
> <PUBCHEM_ATOM_UDEF_STEREO_COUNT>
1
> <PUBCHEM_BOND_DEF_STEREO_COUNT>
0
> <PUBCHEM_BOND_UDEF_STEREO_COUNT>
0
> <PUBCHEM_ISOTOPIC_ATOM_COUNT>
0
> <PUBCHEM_COMPONENT_COUNT>
1
> <PUBCHEM_CACTVS_TAUTO_COUNT>
-1
> <PUBCHEM_COORDINATE_TYPE>
1
5
255
> <PUBCHEM_BONDANNOTATIONS>
3  6  3
$$$$
