526808
  -OEChem-10302200292D
 75 74  0     1  0  0  0  0  0999 V2000
   17.5885   -0.2500    0.0000 Si  0  0  0  0  0  0  0  0  0  0  0  0
   16.7224   -0.7500    0.0000 O   0  0  0  0  0  0  0  0  0  0  0  0
    2.8660   -0.7500    0.0000 O   0  0  0  0  0  0  0  0  0  0  0  0
    3.7320    0.7500    0.0000 O   0  0  0  0  0  0  0  0  0  0  0  0
   18.4545    0.2500    0.0000 C   0  0  0  0  0  0  0  0  0  0  0  0
   15.8564   -0.2500    0.0000 C   0  0  3  0  0  0  0  0  0  0  0  0
   19.3205    0.7500    0.0000 C   0  0  0  0  0  0  0  0  0  0  0  0
   17.9545    1.1160    0.0000 C   0  0  0  0  0  0  0  0  0  0  0  0
   18.9545   -0.6160    0.0000 C   0  0  0  0  0  0  0  0  0  0  0  0
   17.0885    0.6160    0.0000 C   0  0  0  0  0  0  0  0  0  0  0  0
   18.0885   -1.1160    0.0000 C   0  0  0  0  0  0  0  0  0  0  0  0
   14.9904   -0.7500    0.0000 C   0  0  0  0  0  0  0  0  0  0  0  0
   14.1244   -0.2500    0.0000 C   0  0  0  0  0  0  0  0  0  0  0  0
   13.2583   -0.7500    0.0000 C   0  0  0  0  0  0  0  0  0  0  0  0
   12.3923   -0.2500    0.0000 C   0  0  0  0  0  0  0  0  0  0  0  0
   15.8564    0.7500    0.0000 C   0  0  0  0  0  0  0  0  0  0  0  0
   11.5263   -0.7500    0.0000 C   0  0  0  0  0  0  0  0  0  0  0  0
   10.6603   -0.2500    0.0000 C   0  0  0  0  0  0  0  0  0  0  0  0
    9.7942   -0.7500    0.0000 C   0  0  0  0  0  0  0  0  0  0  0  0
    8.9282   -0.2500    0.0000 C   0  0  0  0  0  0  0  0  0  0  0  0
    8.0622   -0.7500    0.0000 C   0  0  0  0  0  0  0  0  0  0  0  0
    7.1962   -0.2500    0.0000 C   0  0  0  0  0  0  0  0  0  0  0  0
    6.3301   -0.7500    0.0000 C   0  0  0  0  0  0  0  0  0  0  0  0
    5.4641   -0.2500    0.0000 C   0  0  0  0  0  0  0  0  0  0  0  0
    4.5981   -0.7500    0.0000 C   0  0  0  0  0  0  0  0  0  0  0  0
    3.7320   -0.2500    0.0000 C   0  0  0  0  0  0  0  0  0  0  0  0
    2.0000   -0.2500    0.0000 C   0  0  0  0  0  0  0  0  0  0  0  0
   16.3933    0.0600    0.0000 H   0  0  0  0  0  0  0  0  0  0  0  0
   19.6305    0.2131    0.0000 H   0  0  0  0  0  0  0  0  0  0  0  0
   19.8574    1.0600    0.0000 H   0  0  0  0  0  0  0  0  0  0  0  0
   19.0105    1.2869    0.0000 H   0  0  0  0  0  0  0  0  0  0  0  0
   18.4914    1.4260    0.0000 H   0  0  0  0  0  0  0  0  0  0  0  0
   17.6445    1.6530    0.0000 H   0  0  0  0  0  0  0  0  0  0  0  0
   17.4175    0.8060    0.0000 H   0  0  0  0  0  0  0  0  0  0  0  0
   18.4175   -0.9260    0.0000 H   0  0  0  0  0  0  0  0  0  0  0  0
   19.2645   -1.1530    0.0000 H   0  0  0  0  0  0  0  0  0  0  0  0
   19.4914   -0.3060    0.0000 H   0  0  0  0  0  0  0  0  0  0  0  0
   17.6254    0.9260    0.0000 H   0  0  0  0  0  0  0  0  0  0  0  0
   16.7785    1.1530    0.0000 H   0  0  0  0  0  0  0  0  0  0  0  0
   16.5515    0.3060    0.0000 H   0  0  0  0  0  0  0  0  0  0  0  0
   17.5515   -1.4260    0.0000 H   0  0  0  0  0  0  0  0  0  0  0  0
   18.3985   -1.6530    0.0000 H   0  0  0  0  0  0  0  0  0  0  0  0
   18.6254   -0.8060    0.0000 H   0  0  0  0  0  0  0  0  0  0  0  0
   14.5919   -1.2250    0.0000 H   0  0  0  0  0  0  0  0  0  0  0  0
   15.3889   -1.2250    0.0000 H   0  0  0  0  0  0  0  0  0  0  0  0
   14.5229    0.2249    0.0000 H   0  0  0  0  0  0  0  0  0  0  0  0
   13.7258    0.2249    0.0000 H   0  0  0  0  0  0  0  0  0  0  0  0
   12.8598   -1.2250    0.0000 H   0  0  0  0  0  0  0  0  0  0  0  0
   13.6569   -1.2250    0.0000 H   0  0  0  0  0  0  0  0  0  0  0  0
   12.7908    0.2249    0.0000 H   0  0  0  0  0  0  0  0  0  0  0  0
   11.9938    0.2249    0.0000 H   0  0  0  0  0  0  0  0  0  0  0  0
   16.4764    0.7500    0.0000 H   0  0  0  0  0  0  0  0  0  0  0  0
   15.8564    1.3700    0.0000 H   0  0  0  0  0  0  0  0  0  0  0  0
   15.2364    0.7500    0.0000 H   0  0  0  0  0  0  0  0  0  0  0  0
   11.1278   -1.2250    0.0000 H   0  0  0  0  0  0  0  0  0  0  0  0
   11.9248   -1.2250    0.0000 H   0  0  0  0  0  0  0  0  0  0  0  0
   11.0588    0.2249    0.0000 H   0  0  0  0  0  0  0  0  0  0  0  0
   10.2617    0.2249    0.0000 H   0  0  0  0  0  0  0  0  0  0  0  0
    9.3957   -1.2250    0.0000 H   0  0  0  0  0  0  0  0  0  0  0  0
   10.1928   -1.2250    0.0000 H   0  0  0  0  0  0  0  0  0  0  0  0
    9.3267    0.2249    0.0000 H   0  0  0  0  0  0  0  0  0  0  0  0
    8.5297    0.2249    0.0000 H   0  0  0  0  0  0  0  0  0  0  0  0
    7.6636   -1.2250    0.0000 H   0  0  0  0  0  0  0  0  0  0  0  0
    8.4607   -1.2250    0.0000 H   0  0  0  0  0  0  0  0  0  0  0  0
    7.5947    0.2249    0.0000 H   0  0  0  0  0  0  0  0  0  0  0  0
    6.7976    0.2249    0.0000 H   0  0  0  0  0  0  0  0  0  0  0  0
    5.9316   -1.2250    0.0000 H   0  0  0  0  0  0  0  0  0  0  0  0
    6.7287   -1.2250    0.0000 H   0  0  0  0  0  0  0  0  0  0  0  0
    5.8626    0.2249    0.0000 H   0  0  0  0  0  0  0  0  0  0  0  0
    5.0656    0.2249    0.0000 H   0  0  0  0  0  0  0  0  0  0  0  0
    4.1996   -1.2250    0.0000 H   0  0  0  0  0  0  0  0  0  0  0  0
    4.9966   -1.2250    0.0000 H   0  0  0  0  0  0  0  0  0  0  0  0
    2.3100    0.2869    0.0000 H   0  0  0  0  0  0  0  0  0  0  0  0
    1.4631    0.0600    0.0000 H   0  0  0  0  0  0  0  0  0  0  0  0
    1.6900   -0.7869    0.0000 H   0  0  0  0  0  0  0  0  0  0  0  0
  1  2  1  0  0  0  0
  1  5  1  0  0  0  0
  1 10  1  0  0  0  0
  1 11  1  0  0  0  0
  2  6  1  0  0  0  0
  3 26  1  0  0  0  0
  3 27  1  0  0  0  0
  4 26  2  0  0  0  0
  5  7  1  0  0  0  0
  5  8  1  0  0  0  0
  5  9  1  0  0  0  0
  6 12  1  0  0  0  0
  6 16  1  0  0  0  0
  6 28  1  0  0  0  0
  7 29  1  0  0  0  0
  7 30  1  0  0  0  0
  7 31  1  0  0  0  0
  8 32  1  0  0  0  0
  8 33  1  0  0  0  0
  8 34  1  0  0  0  0
  9 35  1  0  0  0  0
  9 36  1  0  0  0  0
  9 37  1  0  0  0  0
 10 38  1  0  0  0  0
 10 39  1  0  0  0  0
 10 40  1  0  0  0  0
 11 41  1  0  0  0  0
 11 42  1  0  0  0  0
 11 43  1  0  0  0  0
 12 13  1  0  0  0  0
 12 44  1  0  0  0  0
 12 45  1  0  0  0  0
 13 14  1  0  0  0  0
 13 46  1  0  0  0  0
 13 47  1  0  0  0  0
 14 15  1  0  0  0  0
 14 48  1  0  0  0  0
 14 49  1  0  0  0  0
 15 17  1  0  0  0  0
 15 50  1  0  0  0  0
 15 51  1  0  0  0  0
 16 52  1  0  0  0  0
 16 53  1  0  0  0  0
 16 54  1  0  0  0  0
 17 18  1  0  0  0  0
 17 55  1  0  0  0  0
 17 56  1  0  0  0  0
 18 19  1  0  0  0  0
 18 57  1  0  0  0  0
 18 58  1  0  0  0  0
 19 20  1  0  0  0  0
 19 59  1  0  0  0  0
 19 60  1  0  0  0  0
 20 21  1  0  0  0  0
 20 61  1  0  0  0  0
 20 62  1  0  0  0  0
 21 22  1  0  0  0  0
 21 63  1  0  0  0  0
 21 64  1  0  0  0  0
 22 23  1  0  0  0  0
 22 65  1  0  0  0  0
 22 66  1  0  0  0  0
 23 24  1  0  0  0  0
 23 67  1  0  0  0  0
 23 68  1  0  0  0  0
 24 25  1  0  0  0  0
 24 69  1  0  0  0  0
 24 70  1  0  0  0  0
 25 26  1  0  0  0  0
 25 71  1  0  0  0  0
 25 72  1  0  0  0  0
 27 73  1  0  0  0  0
 27 74  1  0  0  0  0
 27 75  1  0  0  0  0
M  END
> <PUBCHEM_COMPOUND_CID>
526808
> <PUBCHEM_COMPOUND_CANONICALIZED>
1
> <PUBCHEM_CACTVS_COMPLEXITY>
374
> <PUBCHEM_CACTVS_HBOND_ACCEPTOR>
3
> <PUBCHEM_CACTVS_HBOND_DONOR>
0
> <PUBCHEM_CACTVS_ROTATABLE_BOND>
18
> <PUBCHEM_CACTVS_SUBSKEYS>
AAADcfB4MAgAAAAAAAAAAAAAAAAAAAAAAAAAAAAAAAAAAAAAAAAAGhAAAEAADBSgoAJCCAAABAEIAACQCAAAAAAAAAAAAAEAAAAAABIAAAAAAAAEAAAAAAGIyKCAAAAAAAAAAAAAAAAAAAAAAAAAAAAAAA==
> <PUBCHEM_IUPAC_OPENEYE_NAME>
methyl 15-[tert-butyl(dimethyl)silyl]oxyhexadecanoate
> <PUBCHEM_IUPAC_CAS_NAME>
15-[tert-butyl(dimethyl)silyl]oxyhexadecanoic acid methyl ester
> <PUBCHEM_IUPAC_NAME_MARKUP>
methyl 15-[<I>tert</I>-butyl(dimethyl)silyl]oxyhexadecanoate
> <PUBCHEM_IUPAC_NAME>
methyl 15-[tert-butyl(dimethyl)silyl]oxyhexadecanoate
> <PUBCHEM_IUPAC_SYSTEMATIC_NAME>
methyl 15-[tert-butyl(dimethyl)silyl]oxyhexadecanoate
> <PUBCHEM_IUPAC_TRADITIONAL_NAME>
15-[tert-butyl(dimethyl)silyl]oxypalmitic acid methyl ester
> <PUBCHEM_IUPAC_INCHI>
InChI=1S/C23H48O3Si/c1-21(26-27(6,7)23(2,3)4)19-17-15-13-11-9-8-10-12-14-16-18-20-22(24)25-5/h21H,8-20H2,1-7H3
> <PUBCHEM_IUPAC_INCHIKEY>
ITLKLWQFJUDLTE-UHFFFAOYSA-N
> <PUBCHEM_EXACT_MASS>
400.33727192
> <PUBCHEM_MOLECULAR_FORMULA>
C23H48O3Si
> <PUBCHEM_MOLECULAR_WEIGHT>
400.7
> <PUBCHEM_OPENEYE_CAN_SMILES>
CC(CCCCCCCCCCCCCC(=O)OC)O[Si](C)(C)C(C)(C)C
> <PUBCHEM_OPENEYE_ISO_SMILES>
CC(CCCCCCCCCCCCCC(=O)OC)O[Si](C)(C)C(C)(C)C
> <PUBCHEM_CACTVS_TPSA>
35.5
> <PUBCHEM_MONOISOTOPIC_WEIGHT>
400.33727192
> <PUBCHEM_TOTAL_CHARGE>
0
> <PUBCHEM_HEAVY_ATOM_COUNT>
27
> <PUBCHEM_ATOM_DEF_STEREO_COUNT>
0
> <PUBCHEM_ATOM_UDEF_STEREO_COUNT>
1
> <PUBCHEM_BOND_DEF_STEREO_COUNT>
0
> <PUBCHEM_BOND_UDEF_STEREO_COUNT>
0
> <PUBCHEM_ISOTOPIC_ATOM_COUNT>
0
> <PUBCHEM_COMPONENT_COUNT>
1
> <PUBCHEM_CACTVS_TAUTO_COUNT>
-1
> <PUBCHEM_COORDINATE_TYPE>
1
5
255
> <PUBCHEM_BONDANNOTATIONS>
6  16  3
$$$$
