526841
  -OEChem-10302200292D
 78 77  0     1  0  0  0  0  0999 V2000
   12.3923   -2.5670    0.0000 Si  0  0  0  0  0  0  0  0  0  0  0  0
   11.5263   -3.0670    0.0000 O   0  0  0  0  0  0  0  0  0  0  0  0
    2.8660   -3.0670    0.0000 O   0  0  0  0  0  0  0  0  0  0  0  0
    3.7320   -1.5670    0.0000 O   0  0  0  0  0  0  0  0  0  0  0  0
   13.2583   -2.0670    0.0000 C   0  0  0  0  0  0  0  0  0  0  0  0
   10.6603   -2.5670    0.0000 C   0  0  3  0  0  0  0  0  0  0  0  0
   10.6603   -1.5670    0.0000 C   0  0  0  0  0  0  0  0  0  0  0  0
    9.7942   -3.0670    0.0000 C   0  0  0  0  0  0  0  0  0  0  0  0
   11.8923   -1.7010    0.0000 C   0  0  0  0  0  0  0  0  0  0  0  0
   12.8923   -3.4330    0.0000 C   0  0  0  0  0  0  0  0  0  0  0  0
   14.1244   -1.5670    0.0000 C   0  0  0  0  0  0  0  0  0  0  0  0
   12.7583   -1.2010    0.0000 C   0  0  0  0  0  0  0  0  0  0  0  0
   13.7583   -2.9330    0.0000 C   0  0  0  0  0  0  0  0  0  0  0  0
    9.7942   -1.0670    0.0000 C   0  0  0  0  0  0  0  0  0  0  0  0
    8.9282   -2.5670    0.0000 C   0  0  0  0  0  0  0  0  0  0  0  0
    9.7942   -0.0670    0.0000 C   0  0  0  0  0  0  0  0  0  0  0  0
    8.0622   -3.0670    0.0000 C   0  0  0  0  0  0  0  0  0  0  0  0
    8.9282    0.4330    0.0000 C   0  0  0  0  0  0  0  0  0  0  0  0
    7.1962   -2.5670    0.0000 C   0  0  0  0  0  0  0  0  0  0  0  0
    8.9282    1.4330    0.0000 C   0  0  0  0  0  0  0  0  0  0  0  0
    6.3301   -3.0670    0.0000 C   0  0  0  0  0  0  0  0  0  0  0  0
    8.0622    1.9330    0.0000 C   0  0  0  0  0  0  0  0  0  0  0  0
    5.4641   -2.5670    0.0000 C   0  0  0  0  0  0  0  0  0  0  0  0
    8.0622    2.9330    0.0000 C   0  0  0  0  0  0  0  0  0  0  0  0
    4.5981   -3.0670    0.0000 C   0  0  0  0  0  0  0  0  0  0  0  0
    7.1962    3.4330    0.0000 C   0  0  0  0  0  0  0  0  0  0  0  0
    3.7320   -2.5670    0.0000 C   0  0  0  0  0  0  0  0  0  0  0  0
    2.0000   -2.5670    0.0000 C   0  0  0  0  0  0  0  0  0  0  0  0
   11.1972   -2.2570    0.0000 H   0  0  0  0  0  0  0  0  0  0  0  0
   11.2708   -1.6746    0.0000 H   0  0  0  0  0  0  0  0  0  0  0  0
   10.8723   -0.9844    0.0000 H   0  0  0  0  0  0  0  0  0  0  0  0
    9.3957   -3.5419    0.0000 H   0  0  0  0  0  0  0  0  0  0  0  0
   10.1928   -3.5419    0.0000 H   0  0  0  0  0  0  0  0  0  0  0  0
   12.4292   -1.3910    0.0000 H   0  0  0  0  0  0  0  0  0  0  0  0
   11.5823   -1.1640    0.0000 H   0  0  0  0  0  0  0  0  0  0  0  0
   11.3554   -2.0110    0.0000 H   0  0  0  0  0  0  0  0  0  0  0  0
   12.3554   -3.7430    0.0000 H   0  0  0  0  0  0  0  0  0  0  0  0
   13.2023   -3.9700    0.0000 H   0  0  0  0  0  0  0  0  0  0  0  0
   13.4292   -3.1230    0.0000 H   0  0  0  0  0  0  0  0  0  0  0  0
   14.4344   -2.1039    0.0000 H   0  0  0  0  0  0  0  0  0  0  0  0
   14.6613   -1.2570    0.0000 H   0  0  0  0  0  0  0  0  0  0  0  0
   13.8144   -1.0300    0.0000 H   0  0  0  0  0  0  0  0  0  0  0  0
   13.2953   -0.8910    0.0000 H   0  0  0  0  0  0  0  0  0  0  0  0
   12.4483   -0.6640    0.0000 H   0  0  0  0  0  0  0  0  0  0  0  0
   12.2214   -1.5110    0.0000 H   0  0  0  0  0  0  0  0  0  0  0  0
   13.2214   -3.2430    0.0000 H   0  0  0  0  0  0  0  0  0  0  0  0
   14.0683   -3.4700    0.0000 H   0  0  0  0  0  0  0  0  0  0  0  0
   14.2953   -2.6230    0.0000 H   0  0  0  0  0  0  0  0  0  0  0  0
    9.1836   -0.9593    0.0000 H   0  0  0  0  0  0  0  0  0  0  0  0
    9.5822   -1.6496    0.0000 H   0  0  0  0  0  0  0  0  0  0  0  0
    9.3267   -2.0920    0.0000 H   0  0  0  0  0  0  0  0  0  0  0  0
    8.5297   -2.0920    0.0000 H   0  0  0  0  0  0  0  0  0  0  0  0
   10.4048   -0.1746    0.0000 H   0  0  0  0  0  0  0  0  0  0  0  0
   10.0063    0.5156    0.0000 H   0  0  0  0  0  0  0  0  0  0  0  0
    7.6636   -3.5419    0.0000 H   0  0  0  0  0  0  0  0  0  0  0  0
    8.4607   -3.5419    0.0000 H   0  0  0  0  0  0  0  0  0  0  0  0
    8.3176    0.5407    0.0000 H   0  0  0  0  0  0  0  0  0  0  0  0
    8.7162   -0.1496    0.0000 H   0  0  0  0  0  0  0  0  0  0  0  0
    7.5947   -2.0920    0.0000 H   0  0  0  0  0  0  0  0  0  0  0  0
    6.7976   -2.0920    0.0000 H   0  0  0  0  0  0  0  0  0  0  0  0
    9.5388    1.3254    0.0000 H   0  0  0  0  0  0  0  0  0  0  0  0
    9.1403    2.0156    0.0000 H   0  0  0  0  0  0  0  0  0  0  0  0
    5.9316   -3.5419    0.0000 H   0  0  0  0  0  0  0  0  0  0  0  0
    6.7287   -3.5419    0.0000 H   0  0  0  0  0  0  0  0  0  0  0  0
    7.4516    2.0407    0.0000 H   0  0  0  0  0  0  0  0  0  0  0  0
    7.8501    1.3504    0.0000 H   0  0  0  0  0  0  0  0  0  0  0  0
    5.8626   -2.0920    0.0000 H   0  0  0  0  0  0  0  0  0  0  0  0
    5.0656   -2.0920    0.0000 H   0  0  0  0  0  0  0  0  0  0  0  0
    8.6728    2.8253    0.0000 H   0  0  0  0  0  0  0  0  0  0  0  0
    8.2742    3.5156    0.0000 H   0  0  0  0  0  0  0  0  0  0  0  0
    4.1996   -3.5419    0.0000 H   0  0  0  0  0  0  0  0  0  0  0  0
    4.9966   -3.5419    0.0000 H   0  0  0  0  0  0  0  0  0  0  0  0
    7.5062    3.9700    0.0000 H   0  0  0  0  0  0  0  0  0  0  0  0
    6.6592    3.7430    0.0000 H   0  0  0  0  0  0  0  0  0  0  0  0
    6.8862    2.8961    0.0000 H   0  0  0  0  0  0  0  0  0  0  0  0
    2.3100   -2.0300    0.0000 H   0  0  0  0  0  0  0  0  0  0  0  0
    1.4631   -2.2570    0.0000 H   0  0  0  0  0  0  0  0  0  0  0  0
    1.6900   -3.1039    0.0000 H   0  0  0  0  0  0  0  0  0  0  0  0
  1  2  1  0  0  0  0
  1  5  1  0  0  0  0
  1  9  1  0  0  0  0
  1 10  1  0  0  0  0
  2  6  1  0  0  0  0
  3 27  1  0  0  0  0
  3 28  1  0  0  0  0
  4 27  2  0  0  0  0
  5 11  1  0  0  0  0
  5 12  1  0  0  0  0
  5 13  1  0  0  0  0
  6  7  1  0  0  0  0
  6  8  1  0  0  0  0
  6 29  1  0  0  0  0
  7 14  1  0  0  0  0
  7 30  1  0  0  0  0
  7 31  1  0  0  0  0
  8 15  1  0  0  0  0
  8 32  1  0  0  0  0
  8 33  1  0  0  0  0
  9 34  1  0  0  0  0
  9 35  1  0  0  0  0
  9 36  1  0  0  0  0
 10 37  1  0  0  0  0
 10 38  1  0  0  0  0
 10 39  1  0  0  0  0
 11 40  1  0  0  0  0
 11 41  1  0  0  0  0
 11 42  1  0  0  0  0
 12 43  1  0  0  0  0
 12 44  1  0  0  0  0
 12 45  1  0  0  0  0
 13 46  1  0  0  0  0
 13 47  1  0  0  0  0
 13 48  1  0  0  0  0
 14 16  1  0  0  0  0
 14 49  1  0  0  0  0
 14 50  1  0  0  0  0
 15 17  1  0  0  0  0
 15 51  1  0  0  0  0
 15 52  1  0  0  0  0
 16 18  1  0  0  0  0
 16 53  1  0  0  0  0
 16 54  1  0  0  0  0
 17 19  1  0  0  0  0
 17 55  1  0  0  0  0
 17 56  1  0  0  0  0
 18 20  1  0  0  0  0
 18 57  1  0  0  0  0
 18 58  1  0  0  0  0
 19 21  1  0  0  0  0
 19 59  1  0  0  0  0
 19 60  1  0  0  0  0
 20 22  1  0  0  0  0
 20 61  1  0  0  0  0
 20 62  1  0  0  0  0
 21 23  1  0  0  0  0
 21 63  1  0  0  0  0
 21 64  1  0  0  0  0
 22 24  1  0  0  0  0
 22 65  1  0  0  0  0
 22 66  1  0  0  0  0
 23 25  1  0  0  0  0
 23 67  1  0  0  0  0
 23 68  1  0  0  0  0
 24 26  1  0  0  0  0
 24 69  1  0  0  0  0
 24 70  1  0  0  0  0
 25 27  1  0  0  0  0
 25 71  1  0  0  0  0
 25 72  1  0  0  0  0
 26 73  1  0  0  0  0
 26 74  1  0  0  0  0
 26 75  1  0  0  0  0
 28 76  1  0  0  0  0
 28 77  1  0  0  0  0
 28 78  1  0  0  0  0
M  END
> <PUBCHEM_COMPOUND_CID>
526841
> <PUBCHEM_COMPOUND_CANONICALIZED>
1
> <PUBCHEM_CACTVS_COMPLEXITY>
388
> <PUBCHEM_CACTVS_HBOND_ACCEPTOR>
3
> <PUBCHEM_CACTVS_HBOND_DONOR>
0
> <PUBCHEM_CACTVS_ROTATABLE_BOND>
19
> <PUBCHEM_CACTVS_SUBSKEYS>
AAADcfB4MAgAAAAAAAAAAAAAAAAAAAAAAAAAAAAAAAAAAAAAAAAAGhAAAEAADBSgoAJCCAAABAEIAACQCAAAAAAAAAAAAAEAAAAAABIAAAAAAAAEAAAAAAGIyKCAAAAAAAAAAAAAAAAAAAAAAAAAAAAAAA==
> <PUBCHEM_IUPAC_OPENEYE_NAME>
methyl 9-[tert-butyl(dimethyl)silyl]oxyheptadecanoate
> <PUBCHEM_IUPAC_CAS_NAME>
9-[tert-butyl(dimethyl)silyl]oxyheptadecanoic acid methyl ester
> <PUBCHEM_IUPAC_NAME_MARKUP>
methyl 9-[<I>tert</I>-butyl(dimethyl)silyl]oxyheptadecanoate
> <PUBCHEM_IUPAC_NAME>
methyl 9-[tert-butyl(dimethyl)silyl]oxyheptadecanoate
> <PUBCHEM_IUPAC_SYSTEMATIC_NAME>
methyl 9-[tert-butyl(dimethyl)silyl]oxyheptadecanoate
> <PUBCHEM_IUPAC_TRADITIONAL_NAME>
9-[tert-butyl(dimethyl)silyl]oxyheptadecanoic acid methyl ester
> <PUBCHEM_IUPAC_INCHI>
InChI=1S/C24H50O3Si/c1-8-9-10-11-13-16-19-22(27-28(6,7)24(2,3)4)20-17-14-12-15-18-21-23(25)26-5/h22H,8-21H2,1-7H3
> <PUBCHEM_IUPAC_INCHIKEY>
FYEFRSWHGNDWMV-UHFFFAOYSA-N
> <PUBCHEM_EXACT_MASS>
414.35292199
> <PUBCHEM_MOLECULAR_FORMULA>
C24H50O3Si
> <PUBCHEM_MOLECULAR_WEIGHT>
414.7
> <PUBCHEM_OPENEYE_CAN_SMILES>
CCCCCCCCC(CCCCCCCC(=O)OC)O[Si](C)(C)C(C)(C)C
> <PUBCHEM_OPENEYE_ISO_SMILES>
CCCCCCCCC(CCCCCCCC(=O)OC)O[Si](C)(C)C(C)(C)C
> <PUBCHEM_CACTVS_TPSA>
35.5
> <PUBCHEM_MONOISOTOPIC_WEIGHT>
414.35292199
> <PUBCHEM_TOTAL_CHARGE>
0
> <PUBCHEM_HEAVY_ATOM_COUNT>
28
> <PUBCHEM_ATOM_DEF_STEREO_COUNT>
0
> <PUBCHEM_ATOM_UDEF_STEREO_COUNT>
1
> <PUBCHEM_BOND_DEF_STEREO_COUNT>
0
> <PUBCHEM_BOND_UDEF_STEREO_COUNT>
0
> <PUBCHEM_ISOTOPIC_ATOM_COUNT>
0
> <PUBCHEM_COMPONENT_COUNT>
1
> <PUBCHEM_CACTVS_TAUTO_COUNT>
-1
> <PUBCHEM_COORDINATE_TYPE>
1
5
255
> <PUBCHEM_BONDANNOTATIONS>
6  7  3
$$$$
