526828
  -OEChem-10302200292D
 75 74  0     1  0  0  0  0  0999 V2000
   14.1244   -1.5670    0.0000 Si  0  0  0  0  0  0  0  0  0  0  0  0
   13.2583   -2.0670    0.0000 O   0  0  0  0  0  0  0  0  0  0  0  0
    2.8660   -2.0670    0.0000 O   0  0  0  0  0  0  0  0  0  0  0  0
    3.7320   -0.5670    0.0000 O   0  0  0  0  0  0  0  0  0  0  0  0
   14.9904   -1.0670    0.0000 C   0  0  0  0  0  0  0  0  0  0  0  0
   12.3923   -1.5670    0.0000 C   0  0  3  0  0  0  0  0  0  0  0  0
   11.5263   -2.0670    0.0000 C   0  0  0  0  0  0  0  0  0  0  0  0
   13.6244   -0.7010    0.0000 C   0  0  0  0  0  0  0  0  0  0  0  0
   14.6244   -2.4330    0.0000 C   0  0  0  0  0  0  0  0  0  0  0  0
   12.3923   -0.5670    0.0000 C   0  0  0  0  0  0  0  0  0  0  0  0
   15.8564   -0.5670    0.0000 C   0  0  0  0  0  0  0  0  0  0  0  0
   14.4904   -0.2010    0.0000 C   0  0  0  0  0  0  0  0  0  0  0  0
   15.4904   -1.9330    0.0000 C   0  0  0  0  0  0  0  0  0  0  0  0
   10.6603   -1.5670    0.0000 C   0  0  0  0  0  0  0  0  0  0  0  0
   11.5263   -0.0670    0.0000 C   0  0  0  0  0  0  0  0  0  0  0  0
    9.7942   -2.0670    0.0000 C   0  0  0  0  0  0  0  0  0  0  0  0
    8.9282   -1.5670    0.0000 C   0  0  0  0  0  0  0  0  0  0  0  0
   11.5263    0.9330    0.0000 C   0  0  0  0  0  0  0  0  0  0  0  0
    8.0622   -2.0670    0.0000 C   0  0  0  0  0  0  0  0  0  0  0  0
    7.1962   -1.5670    0.0000 C   0  0  0  0  0  0  0  0  0  0  0  0
   10.6603    1.4330    0.0000 C   0  0  0  0  0  0  0  0  0  0  0  0
    6.3301   -2.0670    0.0000 C   0  0  0  0  0  0  0  0  0  0  0  0
    5.4641   -1.5670    0.0000 C   0  0  0  0  0  0  0  0  0  0  0  0
   10.6603    2.4330    0.0000 C   0  0  0  0  0  0  0  0  0  0  0  0
    4.5981   -2.0670    0.0000 C   0  0  0  0  0  0  0  0  0  0  0  0
    3.7320   -1.5670    0.0000 C   0  0  0  0  0  0  0  0  0  0  0  0
    2.0000   -1.5670    0.0000 C   0  0  0  0  0  0  0  0  0  0  0  0
   12.3923   -2.1870    0.0000 H   0  0  0  0  0  0  0  0  0  0  0  0
   11.1278   -2.5419    0.0000 H   0  0  0  0  0  0  0  0  0  0  0  0
   11.9248   -2.5419    0.0000 H   0  0  0  0  0  0  0  0  0  0  0  0
   14.1613   -0.3910    0.0000 H   0  0  0  0  0  0  0  0  0  0  0  0
   13.3144   -0.1640    0.0000 H   0  0  0  0  0  0  0  0  0  0  0  0
   13.0874   -1.0110    0.0000 H   0  0  0  0  0  0  0  0  0  0  0  0
   14.0874   -2.7430    0.0000 H   0  0  0  0  0  0  0  0  0  0  0  0
   14.9344   -2.9700    0.0000 H   0  0  0  0  0  0  0  0  0  0  0  0
   15.1613   -2.1230    0.0000 H   0  0  0  0  0  0  0  0  0  0  0  0
   13.0029   -0.6746    0.0000 H   0  0  0  0  0  0  0  0  0  0  0  0
   12.6044    0.0156    0.0000 H   0  0  0  0  0  0  0  0  0  0  0  0
   16.1664   -1.1039    0.0000 H   0  0  0  0  0  0  0  0  0  0  0  0
   16.3933   -0.2570    0.0000 H   0  0  0  0  0  0  0  0  0  0  0  0
   15.5464   -0.0301    0.0000 H   0  0  0  0  0  0  0  0  0  0  0  0
   15.0273    0.1090    0.0000 H   0  0  0  0  0  0  0  0  0  0  0  0
   14.1804    0.3360    0.0000 H   0  0  0  0  0  0  0  0  0  0  0  0
   13.9534   -0.5110    0.0000 H   0  0  0  0  0  0  0  0  0  0  0  0
   14.9534   -2.2430    0.0000 H   0  0  0  0  0  0  0  0  0  0  0  0
   15.8004   -2.4700    0.0000 H   0  0  0  0  0  0  0  0  0  0  0  0
   16.0273   -1.6230    0.0000 H   0  0  0  0  0  0  0  0  0  0  0  0
   11.0588   -1.0920    0.0000 H   0  0  0  0  0  0  0  0  0  0  0  0
   10.2617   -1.0920    0.0000 H   0  0  0  0  0  0  0  0  0  0  0  0
   10.9157    0.0407    0.0000 H   0  0  0  0  0  0  0  0  0  0  0  0
   11.3142   -0.6496    0.0000 H   0  0  0  0  0  0  0  0  0  0  0  0
    9.3957   -2.5419    0.0000 H   0  0  0  0  0  0  0  0  0  0  0  0
   10.1928   -2.5419    0.0000 H   0  0  0  0  0  0  0  0  0  0  0  0
    9.3267   -1.0920    0.0000 H   0  0  0  0  0  0  0  0  0  0  0  0
    8.5297   -1.0920    0.0000 H   0  0  0  0  0  0  0  0  0  0  0  0
   12.1369    0.8254    0.0000 H   0  0  0  0  0  0  0  0  0  0  0  0
   11.7383    1.5156    0.0000 H   0  0  0  0  0  0  0  0  0  0  0  0
    7.6636   -2.5419    0.0000 H   0  0  0  0  0  0  0  0  0  0  0  0
    8.4607   -2.5419    0.0000 H   0  0  0  0  0  0  0  0  0  0  0  0
    7.5947   -1.0920    0.0000 H   0  0  0  0  0  0  0  0  0  0  0  0
    6.7976   -1.0920    0.0000 H   0  0  0  0  0  0  0  0  0  0  0  0
   10.0497    1.5407    0.0000 H   0  0  0  0  0  0  0  0  0  0  0  0
   10.4482    0.8504    0.0000 H   0  0  0  0  0  0  0  0  0  0  0  0
    5.9316   -2.5419    0.0000 H   0  0  0  0  0  0  0  0  0  0  0  0
    6.7287   -2.5419    0.0000 H   0  0  0  0  0  0  0  0  0  0  0  0
    5.8626   -1.0920    0.0000 H   0  0  0  0  0  0  0  0  0  0  0  0
    5.0656   -1.0920    0.0000 H   0  0  0  0  0  0  0  0  0  0  0  0
   11.2803    2.4330    0.0000 H   0  0  0  0  0  0  0  0  0  0  0  0
   10.6603    3.0530    0.0000 H   0  0  0  0  0  0  0  0  0  0  0  0
   10.0403    2.4330    0.0000 H   0  0  0  0  0  0  0  0  0  0  0  0
    4.1996   -2.5419    0.0000 H   0  0  0  0  0  0  0  0  0  0  0  0
    4.9966   -2.5419    0.0000 H   0  0  0  0  0  0  0  0  0  0  0  0
    2.3100   -1.0300    0.0000 H   0  0  0  0  0  0  0  0  0  0  0  0
    1.4631   -1.2570    0.0000 H   0  0  0  0  0  0  0  0  0  0  0  0
    1.6900   -2.1039    0.0000 H   0  0  0  0  0  0  0  0  0  0  0  0
  1  2  1  0  0  0  0
  1  5  1  0  0  0  0
  1  8  1  0  0  0  0
  1  9  1  0  0  0  0
  2  6  1  0  0  0  0
  3 26  1  0  0  0  0
  3 27  1  0  0  0  0
  4 26  2  0  0  0  0
  5 11  1  0  0  0  0
  5 12  1  0  0  0  0
  5 13  1  0  0  0  0
  6  7  1  0  0  0  0
  6 10  1  0  0  0  0
  6 28  1  0  0  0  0
  7 14  1  0  0  0  0
  7 29  1  0  0  0  0
  7 30  1  0  0  0  0
  8 31  1  0  0  0  0
  8 32  1  0  0  0  0
  8 33  1  0  0  0  0
  9 34  1  0  0  0  0
  9 35  1  0  0  0  0
  9 36  1  0  0  0  0
 10 15  1  0  0  0  0
 10 37  1  0  0  0  0
 10 38  1  0  0  0  0
 11 39  1  0  0  0  0
 11 40  1  0  0  0  0
 11 41  1  0  0  0  0
 12 42  1  0  0  0  0
 12 43  1  0  0  0  0
 12 44  1  0  0  0  0
 13 45  1  0  0  0  0
 13 46  1  0  0  0  0
 13 47  1  0  0  0  0
 14 16  1  0  0  0  0
 14 48  1  0  0  0  0
 14 49  1  0  0  0  0
 15 18  1  0  0  0  0
 15 50  1  0  0  0  0
 15 51  1  0  0  0  0
 16 17  1  0  0  0  0
 16 52  1  0  0  0  0
 16 53  1  0  0  0  0
 17 19  1  0  0  0  0
 17 54  1  0  0  0  0
 17 55  1  0  0  0  0
 18 21  1  0  0  0  0
 18 56  1  0  0  0  0
 18 57  1  0  0  0  0
 19 20  1  0  0  0  0
 19 58  1  0  0  0  0
 19 59  1  0  0  0  0
 20 22  1  0  0  0  0
 20 60  1  0  0  0  0
 20 61  1  0  0  0  0
 21 24  1  0  0  0  0
 21 62  1  0  0  0  0
 21 63  1  0  0  0  0
 22 23  1  0  0  0  0
 22 64  1  0  0  0  0
 22 65  1  0  0  0  0
 23 25  1  0  0  0  0
 23 66  1  0  0  0  0
 23 67  1  0  0  0  0
 24 68  1  0  0  0  0
 24 69  1  0  0  0  0
 24 70  1  0  0  0  0
 25 26  1  0  0  0  0
 25 71  1  0  0  0  0
 25 72  1  0  0  0  0
 27 73  1  0  0  0  0
 27 74  1  0  0  0  0
 27 75  1  0  0  0  0
M  END
> <PUBCHEM_COMPOUND_CID>
526828
> <PUBCHEM_COMPOUND_CANONICALIZED>
1
> <PUBCHEM_CACTVS_COMPLEXITY>
374
> <PUBCHEM_CACTVS_HBOND_ACCEPTOR>
3
> <PUBCHEM_CACTVS_HBOND_DONOR>
0
> <PUBCHEM_CACTVS_ROTATABLE_BOND>
18
> <PUBCHEM_CACTVS_SUBSKEYS>
AAADcfB4MAgAAAAAAAAAAAAAAAAAAAAAAAAAAAAAAAAAAAAAAAAAGhAAAEAADBSgoAJCCAAABAEIAACQCAAAAAAAAAAAAAEAAAAAABIAAAAAAAAEAAAAAAGIyKCAAAAAAAAAAAAAAAAAAAAAAAAAAAAAAA==
> <PUBCHEM_IUPAC_OPENEYE_NAME>
methyl 11-[tert-butyl(dimethyl)silyl]oxyhexadecanoate
> <PUBCHEM_IUPAC_CAS_NAME>
11-[tert-butyl(dimethyl)silyl]oxyhexadecanoic acid methyl ester
> <PUBCHEM_IUPAC_NAME_MARKUP>
methyl 11-[<I>tert</I>-butyl(dimethyl)silyl]oxyhexadecanoate
> <PUBCHEM_IUPAC_NAME>
methyl 11-[tert-butyl(dimethyl)silyl]oxyhexadecanoate
> <PUBCHEM_IUPAC_SYSTEMATIC_NAME>
methyl 11-[tert-butyl(dimethyl)silyl]oxyhexadecanoate
> <PUBCHEM_IUPAC_TRADITIONAL_NAME>
11-[tert-butyl(dimethyl)silyl]oxypalmitic acid methyl ester
> <PUBCHEM_IUPAC_INCHI>
InChI=1S/C23H48O3Si/c1-8-9-15-18-21(26-27(6,7)23(2,3)4)19-16-13-11-10-12-14-17-20-22(24)25-5/h21H,8-20H2,1-7H3
> <PUBCHEM_IUPAC_INCHIKEY>
YSMPVJAIAPBOOZ-UHFFFAOYSA-N
> <PUBCHEM_EXACT_MASS>
400.33727192
> <PUBCHEM_MOLECULAR_FORMULA>
C23H48O3Si
> <PUBCHEM_MOLECULAR_WEIGHT>
400.7
> <PUBCHEM_OPENEYE_CAN_SMILES>
CCCCCC(CCCCCCCCCC(=O)OC)O[Si](C)(C)C(C)(C)C
> <PUBCHEM_OPENEYE_ISO_SMILES>
CCCCCC(CCCCCCCCCC(=O)OC)O[Si](C)(C)C(C)(C)C
> <PUBCHEM_CACTVS_TPSA>
35.5
> <PUBCHEM_MONOISOTOPIC_WEIGHT>
400.33727192
> <PUBCHEM_TOTAL_CHARGE>
0
> <PUBCHEM_HEAVY_ATOM_COUNT>
27
> <PUBCHEM_ATOM_DEF_STEREO_COUNT>
0
> <PUBCHEM_ATOM_UDEF_STEREO_COUNT>
1
> <PUBCHEM_BOND_DEF_STEREO_COUNT>
0
> <PUBCHEM_BOND_UDEF_STEREO_COUNT>
0
> <PUBCHEM_ISOTOPIC_ATOM_COUNT>
0
> <PUBCHEM_COMPONENT_COUNT>
1
> <PUBCHEM_CACTVS_TAUTO_COUNT>
-1
> <PUBCHEM_COORDINATE_TYPE>
1
5
255
> <PUBCHEM_BONDANNOTATIONS>
6  10  3
$$$$
