526815
  -OEChem-10302200292D
 87 86  0     1  0  0  0  0  0999 V2000
   19.3205   -0.8170    0.0000 Si  0  0  0  0  0  0  0  0  0  0  0  0
   18.4545   -1.3170    0.0000 O   0  0  0  0  0  0  0  0  0  0  0  0
    2.8660   -1.3170    0.0000 O   0  0  0  0  0  0  0  0  0  0  0  0
    3.7320    0.1830    0.0000 O   0  0  0  0  0  0  0  0  0  0  0  0
   20.1865   -0.3170    0.0000 C   0  0  0  0  0  0  0  0  0  0  0  0
   17.5885   -0.8170    0.0000 C   0  0  3  0  0  0  0  0  0  0  0  0
   18.8205    0.0490    0.0000 C   0  0  0  0  0  0  0  0  0  0  0  0
   19.8205   -1.6830    0.0000 C   0  0  0  0  0  0  0  0  0  0  0  0
   16.7224   -1.3170    0.0000 C   0  0  0  0  0  0  0  0  0  0  0  0
   21.0526    0.1830    0.0000 C   0  0  0  0  0  0  0  0  0  0  0  0
   19.6865    0.5490    0.0000 C   0  0  0  0  0  0  0  0  0  0  0  0
   20.6865   -1.1830    0.0000 C   0  0  0  0  0  0  0  0  0  0  0  0
   17.5885    0.1830    0.0000 C   0  0  0  0  0  0  0  0  0  0  0  0
   15.8564   -0.8170    0.0000 C   0  0  0  0  0  0  0  0  0  0  0  0
   14.9904   -1.3170    0.0000 C   0  0  0  0  0  0  0  0  0  0  0  0
   16.7224    0.6830    0.0000 C   0  0  0  0  0  0  0  0  0  0  0  0
   14.1244   -0.8170    0.0000 C   0  0  0  0  0  0  0  0  0  0  0  0
   13.2583   -1.3170    0.0000 C   0  0  0  0  0  0  0  0  0  0  0  0
   12.3923   -0.8170    0.0000 C   0  0  0  0  0  0  0  0  0  0  0  0
   11.5263   -1.3170    0.0000 C   0  0  0  0  0  0  0  0  0  0  0  0
   10.6603   -0.8170    0.0000 C   0  0  0  0  0  0  0  0  0  0  0  0
   16.7224    1.6830    0.0000 C   0  0  0  0  0  0  0  0  0  0  0  0
    9.7942   -1.3170    0.0000 C   0  0  0  0  0  0  0  0  0  0  0  0
    8.9282   -0.8170    0.0000 C   0  0  0  0  0  0  0  0  0  0  0  0
    8.0622   -1.3170    0.0000 C   0  0  0  0  0  0  0  0  0  0  0  0
    7.1962   -0.8170    0.0000 C   0  0  0  0  0  0  0  0  0  0  0  0
    6.3301   -1.3170    0.0000 C   0  0  0  0  0  0  0  0  0  0  0  0
    5.4641   -0.8170    0.0000 C   0  0  0  0  0  0  0  0  0  0  0  0
    4.5981   -1.3170    0.0000 C   0  0  0  0  0  0  0  0  0  0  0  0
    3.7320   -0.8170    0.0000 C   0  0  0  0  0  0  0  0  0  0  0  0
    2.0000   -0.8170    0.0000 C   0  0  0  0  0  0  0  0  0  0  0  0
   17.5885   -1.4370    0.0000 H   0  0  0  0  0  0  0  0  0  0  0  0
   19.3574    0.3590    0.0000 H   0  0  0  0  0  0  0  0  0  0  0  0
   18.5105    0.5860    0.0000 H   0  0  0  0  0  0  0  0  0  0  0  0
   18.2836   -0.2610    0.0000 H   0  0  0  0  0  0  0  0  0  0  0  0
   19.2836   -1.9930    0.0000 H   0  0  0  0  0  0  0  0  0  0  0  0
   20.1305   -2.2200    0.0000 H   0  0  0  0  0  0  0  0  0  0  0  0
   20.3574   -1.3730    0.0000 H   0  0  0  0  0  0  0  0  0  0  0  0
   16.3239   -1.7919    0.0000 H   0  0  0  0  0  0  0  0  0  0  0  0
   17.1210   -1.7919    0.0000 H   0  0  0  0  0  0  0  0  0  0  0  0
   21.3626   -0.3539    0.0000 H   0  0  0  0  0  0  0  0  0  0  0  0
   21.5895    0.4930    0.0000 H   0  0  0  0  0  0  0  0  0  0  0  0
   20.7426    0.7199    0.0000 H   0  0  0  0  0  0  0  0  0  0  0  0
   20.2235    0.8590    0.0000 H   0  0  0  0  0  0  0  0  0  0  0  0
   19.3765    1.0860    0.0000 H   0  0  0  0  0  0  0  0  0  0  0  0
   19.1496    0.2390    0.0000 H   0  0  0  0  0  0  0  0  0  0  0  0
   20.1496   -1.4930    0.0000 H   0  0  0  0  0  0  0  0  0  0  0  0
   20.9965   -1.7200    0.0000 H   0  0  0  0  0  0  0  0  0  0  0  0
   21.2235   -0.8730    0.0000 H   0  0  0  0  0  0  0  0  0  0  0  0
   18.1990    0.0754    0.0000 H   0  0  0  0  0  0  0  0  0  0  0  0
   17.8005    0.7656    0.0000 H   0  0  0  0  0  0  0  0  0  0  0  0
   16.2549   -0.3420    0.0000 H   0  0  0  0  0  0  0  0  0  0  0  0
   15.4579   -0.3420    0.0000 H   0  0  0  0  0  0  0  0  0  0  0  0
   14.5919   -1.7919    0.0000 H   0  0  0  0  0  0  0  0  0  0  0  0
   15.3889   -1.7919    0.0000 H   0  0  0  0  0  0  0  0  0  0  0  0
   14.5229   -0.3420    0.0000 H   0  0  0  0  0  0  0  0  0  0  0  0
   13.7258   -0.3420    0.0000 H   0  0  0  0  0  0  0  0  0  0  0  0
   16.1119    0.7907    0.0000 H   0  0  0  0  0  0  0  0  0  0  0  0
   16.5104    0.1004    0.0000 H   0  0  0  0  0  0  0  0  0  0  0  0
   12.8598   -1.7919    0.0000 H   0  0  0  0  0  0  0  0  0  0  0  0
   13.6569   -1.7919    0.0000 H   0  0  0  0  0  0  0  0  0  0  0  0
   12.7908   -0.3420    0.0000 H   0  0  0  0  0  0  0  0  0  0  0  0
   11.9938   -0.3420    0.0000 H   0  0  0  0  0  0  0  0  0  0  0  0
   11.1278   -1.7919    0.0000 H   0  0  0  0  0  0  0  0  0  0  0  0
   11.9248   -1.7919    0.0000 H   0  0  0  0  0  0  0  0  0  0  0  0
   11.0588   -0.3420    0.0000 H   0  0  0  0  0  0  0  0  0  0  0  0
   10.2617   -0.3420    0.0000 H   0  0  0  0  0  0  0  0  0  0  0  0
   17.3424    1.6830    0.0000 H   0  0  0  0  0  0  0  0  0  0  0  0
   16.7224    2.3030    0.0000 H   0  0  0  0  0  0  0  0  0  0  0  0
   16.1024    1.6830    0.0000 H   0  0  0  0  0  0  0  0  0  0  0  0
    9.3957   -1.7919    0.0000 H   0  0  0  0  0  0  0  0  0  0  0  0
   10.1928   -1.7919    0.0000 H   0  0  0  0  0  0  0  0  0  0  0  0
    9.3267   -0.3420    0.0000 H   0  0  0  0  0  0  0  0  0  0  0  0
    8.5297   -0.3420    0.0000 H   0  0  0  0  0  0  0  0  0  0  0  0
    7.6636   -1.7919    0.0000 H   0  0  0  0  0  0  0  0  0  0  0  0
    8.4607   -1.7919    0.0000 H   0  0  0  0  0  0  0  0  0  0  0  0
    7.5947   -0.3420    0.0000 H   0  0  0  0  0  0  0  0  0  0  0  0
    6.7976   -0.3420    0.0000 H   0  0  0  0  0  0  0  0  0  0  0  0
    5.9316   -1.7919    0.0000 H   0  0  0  0  0  0  0  0  0  0  0  0
    6.7287   -1.7919    0.0000 H   0  0  0  0  0  0  0  0  0  0  0  0
    5.8626   -0.3420    0.0000 H   0  0  0  0  0  0  0  0  0  0  0  0
    5.0656   -0.3420    0.0000 H   0  0  0  0  0  0  0  0  0  0  0  0
    4.1996   -1.7919    0.0000 H   0  0  0  0  0  0  0  0  0  0  0  0
    4.9966   -1.7919    0.0000 H   0  0  0  0  0  0  0  0  0  0  0  0
    2.3100   -0.2801    0.0000 H   0  0  0  0  0  0  0  0  0  0  0  0
    1.4631   -0.5070    0.0000 H   0  0  0  0  0  0  0  0  0  0  0  0
    1.6900   -1.3539    0.0000 H   0  0  0  0  0  0  0  0  0  0  0  0
  1  2  1  0  0  0  0
  1  5  1  0  0  0  0
  1  7  1  0  0  0  0
  1  8  1  0  0  0  0
  2  6  1  0  0  0  0
  3 30  1  0  0  0  0
  3 31  1  0  0  0  0
  4 30  2  0  0  0  0
  5 10  1  0  0  0  0
  5 11  1  0  0  0  0
  5 12  1  0  0  0  0
  6  9  1  0  0  0  0
  6 13  1  0  0  0  0
  6 32  1  0  0  0  0
  7 33  1  0  0  0  0
  7 34  1  0  0  0  0
  7 35  1  0  0  0  0
  8 36  1  0  0  0  0
  8 37  1  0  0  0  0
  8 38  1  0  0  0  0
  9 14  1  0  0  0  0
  9 39  1  0  0  0  0
  9 40  1  0  0  0  0
 10 41  1  0  0  0  0
 10 42  1  0  0  0  0
 10 43  1  0  0  0  0
 11 44  1  0  0  0  0
 11 45  1  0  0  0  0
 11 46  1  0  0  0  0
 12 47  1  0  0  0  0
 12 48  1  0  0  0  0
 12 49  1  0  0  0  0
 13 16  1  0  0  0  0
 13 50  1  0  0  0  0
 13 51  1  0  0  0  0
 14 15  1  0  0  0  0
 14 52  1  0  0  0  0
 14 53  1  0  0  0  0
 15 17  1  0  0  0  0
 15 54  1  0  0  0  0
 15 55  1  0  0  0  0
 16 22  1  0  0  0  0
 16 58  1  0  0  0  0
 16 59  1  0  0  0  0
 17 18  1  0  0  0  0
 17 56  1  0  0  0  0
 17 57  1  0  0  0  0
 18 19  1  0  0  0  0
 18 60  1  0  0  0  0
 18 61  1  0  0  0  0
 19 20  1  0  0  0  0
 19 62  1  0  0  0  0
 19 63  1  0  0  0  0
 20 21  1  0  0  0  0
 20 64  1  0  0  0  0
 20 65  1  0  0  0  0
 21 23  1  0  0  0  0
 21 66  1  0  0  0  0
 21 67  1  0  0  0  0
 22 68  1  0  0  0  0
 22 69  1  0  0  0  0
 22 70  1  0  0  0  0
 23 24  1  0  0  0  0
 23 71  1  0  0  0  0
 23 72  1  0  0  0  0
 24 25  1  0  0  0  0
 24 73  1  0  0  0  0
 24 74  1  0  0  0  0
 25 26  1  0  0  0  0
 25 75  1  0  0  0  0
 25 76  1  0  0  0  0
 26 27  1  0  0  0  0
 26 77  1  0  0  0  0
 26 78  1  0  0  0  0
 27 28  1  0  0  0  0
 27 79  1  0  0  0  0
 27 80  1  0  0  0  0
 28 29  1  0  0  0  0
 28 81  1  0  0  0  0
 28 82  1  0  0  0  0
 29 30  1  0  0  0  0
 29 83  1  0  0  0  0
 29 84  1  0  0  0  0
 31 85  1  0  0  0  0
 31 86  1  0  0  0  0
 31 87  1  0  0  0  0
M  END
> <PUBCHEM_COMPOUND_CID>
526815
> <PUBCHEM_COMPOUND_CANONICALIZED>
1
> <PUBCHEM_CACTVS_COMPLEXITY>
429
> <PUBCHEM_CACTVS_HBOND_ACCEPTOR>
3
> <PUBCHEM_CACTVS_HBOND_DONOR>
0
> <PUBCHEM_CACTVS_ROTATABLE_BOND>
22
> <PUBCHEM_CACTVS_SUBSKEYS>
AAADcfB4MAgAAAAAAAAAAAAAAAAAAAAAAAAAAAAAAAAAAAAAAAAAGhAAAEAADBSgoAJCCAAABAEIAACQCAAAAAAAAAAAAAEAAAAAABIAAAAAAAAEAAAAAAGIyKCAAAAAAAAAAAAAAAAAAAAAAAAAAAAAAA==
> <PUBCHEM_IUPAC_OPENEYE_NAME>
methyl 17-[tert-butyl(dimethyl)silyl]oxyicosanoate
> <PUBCHEM_IUPAC_CAS_NAME>
17-[tert-butyl(dimethyl)silyl]oxyeicosanoic acid methyl ester
> <PUBCHEM_IUPAC_NAME_MARKUP>
methyl 17-[<I>tert</I>-butyl(dimethyl)silyl]oxyicosanoate
> <PUBCHEM_IUPAC_NAME>
methyl 17-[tert-butyl(dimethyl)silyl]oxyicosanoate
> <PUBCHEM_IUPAC_SYSTEMATIC_NAME>
methyl 17-[tert-butyl(dimethyl)silyl]oxyicosanoate
> <PUBCHEM_IUPAC_TRADITIONAL_NAME>
17-[tert-butyl(dimethyl)silyl]oxyarachidic acid methyl ester
> <PUBCHEM_IUPAC_INCHI>
InChI=1S/C27H56O3Si/c1-8-22-25(30-31(6,7)27(2,3)4)23-20-18-16-14-12-10-9-11-13-15-17-19-21-24-26(28)29-5/h25H,8-24H2,1-7H3
> <PUBCHEM_IUPAC_INCHIKEY>
QECQRIQOHDAKHA-UHFFFAOYSA-N
> <PUBCHEM_EXACT_MASS>
456.39987218
> <PUBCHEM_MOLECULAR_FORMULA>
C27H56O3Si
> <PUBCHEM_MOLECULAR_WEIGHT>
456.8
> <PUBCHEM_OPENEYE_CAN_SMILES>
CCCC(CCCCCCCCCCCCCCCC(=O)OC)O[Si](C)(C)C(C)(C)C
> <PUBCHEM_OPENEYE_ISO_SMILES>
CCCC(CCCCCCCCCCCCCCCC(=O)OC)O[Si](C)(C)C(C)(C)C
> <PUBCHEM_CACTVS_TPSA>
35.5
> <PUBCHEM_MONOISOTOPIC_WEIGHT>
456.39987218
> <PUBCHEM_TOTAL_CHARGE>
0
> <PUBCHEM_HEAVY_ATOM_COUNT>
31
> <PUBCHEM_ATOM_DEF_STEREO_COUNT>
0
> <PUBCHEM_ATOM_UDEF_STEREO_COUNT>
1
> <PUBCHEM_BOND_DEF_STEREO_COUNT>
0
> <PUBCHEM_BOND_UDEF_STEREO_COUNT>
0
> <PUBCHEM_ISOTOPIC_ATOM_COUNT>
0
> <PUBCHEM_COMPONENT_COUNT>
1
> <PUBCHEM_CACTVS_TAUTO_COUNT>
-1
> <PUBCHEM_COORDINATE_TYPE>
1
5
255
> <PUBCHEM_BONDANNOTATIONS>
6  13  3
$$$$
