526802
  -OEChem-10302200292D
 87 86  0     1  0  0  0  0  0999 V2000
   10.6603   -6.0670    0.0000 Si  0  0  0  0  0  0  0  0  0  0  0  0
    9.7942   -6.5670    0.0000 O   0  0  0  0  0  0  0  0  0  0  0  0
    6.3301   -6.5670    0.0000 O   0  0  0  0  0  0  0  0  0  0  0  0
    7.1962   -5.0670    0.0000 O   0  0  0  0  0  0  0  0  0  0  0  0
   11.5263   -5.5670    0.0000 C   0  0  0  0  0  0  0  0  0  0  0  0
    8.9282   -6.0670    0.0000 C   0  0  3  0  0  0  0  0  0  0  0  0
   10.1603   -5.2010    0.0000 C   0  0  0  0  0  0  0  0  0  0  0  0
   11.1603   -6.9330    0.0000 C   0  0  0  0  0  0  0  0  0  0  0  0
   12.3923   -5.0670    0.0000 C   0  0  0  0  0  0  0  0  0  0  0  0
   11.0263   -4.7010    0.0000 C   0  0  0  0  0  0  0  0  0  0  0  0
   12.0263   -6.4330    0.0000 C   0  0  0  0  0  0  0  0  0  0  0  0
    8.9282   -5.0670    0.0000 C   0  0  0  0  0  0  0  0  0  0  0  0
    8.0622   -4.5670    0.0000 C   0  0  0  0  0  0  0  0  0  0  0  0
    8.0622   -6.5670    0.0000 C   0  0  0  0  0  0  0  0  0  0  0  0
    8.0622   -3.5670    0.0000 C   0  0  0  0  0  0  0  0  0  0  0  0
    7.1962   -3.0670    0.0000 C   0  0  0  0  0  0  0  0  0  0  0  0
    7.1962   -2.0670    0.0000 C   0  0  0  0  0  0  0  0  0  0  0  0
    6.3301   -1.5670    0.0000 C   0  0  0  0  0  0  0  0  0  0  0  0
    6.3301   -0.5670    0.0000 C   0  0  0  0  0  0  0  0  0  0  0  0
    5.4641   -0.0670    0.0000 C   0  0  0  0  0  0  0  0  0  0  0  0
    5.4641    0.9330    0.0000 C   0  0  0  0  0  0  0  0  0  0  0  0
    4.5981    1.4330    0.0000 C   0  0  0  0  0  0  0  0  0  0  0  0
    7.1962   -6.0670    0.0000 C   0  0  0  0  0  0  0  0  0  0  0  0
    4.5981    2.4330    0.0000 C   0  0  0  0  0  0  0  0  0  0  0  0
    3.7320    2.9330    0.0000 C   0  0  0  0  0  0  0  0  0  0  0  0
    3.7320    3.9330    0.0000 C   0  0  0  0  0  0  0  0  0  0  0  0
    2.8660    4.4330    0.0000 C   0  0  0  0  0  0  0  0  0  0  0  0
    2.8660    5.4330    0.0000 C   0  0  0  0  0  0  0  0  0  0  0  0
    2.0000    5.9330    0.0000 C   0  0  0  0  0  0  0  0  0  0  0  0
    5.4641   -6.0670    0.0000 C   0  0  0  0  0  0  0  0  0  0  0  0
    2.0000    6.9330    0.0000 C   0  0  0  0  0  0  0  0  0  0  0  0
    9.4651   -5.7570    0.0000 H   0  0  0  0  0  0  0  0  0  0  0  0
   10.6972   -4.8910    0.0000 H   0  0  0  0  0  0  0  0  0  0  0  0
    9.8503   -4.6640    0.0000 H   0  0  0  0  0  0  0  0  0  0  0  0
    9.6233   -5.5110    0.0000 H   0  0  0  0  0  0  0  0  0  0  0  0
   10.6233   -7.2430    0.0000 H   0  0  0  0  0  0  0  0  0  0  0  0
   11.4703   -7.4700    0.0000 H   0  0  0  0  0  0  0  0  0  0  0  0
   11.6972   -6.6230    0.0000 H   0  0  0  0  0  0  0  0  0  0  0  0
   12.7023   -5.6039    0.0000 H   0  0  0  0  0  0  0  0  0  0  0  0
   12.9292   -4.7570    0.0000 H   0  0  0  0  0  0  0  0  0  0  0  0
   12.0823   -4.5300    0.0000 H   0  0  0  0  0  0  0  0  0  0  0  0
   11.5632   -4.3910    0.0000 H   0  0  0  0  0  0  0  0  0  0  0  0
   10.7163   -4.1640    0.0000 H   0  0  0  0  0  0  0  0  0  0  0  0
   10.4893   -5.0110    0.0000 H   0  0  0  0  0  0  0  0  0  0  0  0
   11.4893   -6.7430    0.0000 H   0  0  0  0  0  0  0  0  0  0  0  0
   12.3363   -6.9700    0.0000 H   0  0  0  0  0  0  0  0  0  0  0  0
   12.5632   -6.1230    0.0000 H   0  0  0  0  0  0  0  0  0  0  0  0
    9.5388   -5.1746    0.0000 H   0  0  0  0  0  0  0  0  0  0  0  0
    9.1403   -4.4844    0.0000 H   0  0  0  0  0  0  0  0  0  0  0  0
    7.4516   -4.4593    0.0000 H   0  0  0  0  0  0  0  0  0  0  0  0
    7.8501   -5.1496    0.0000 H   0  0  0  0  0  0  0  0  0  0  0  0
    7.6636   -7.0419    0.0000 H   0  0  0  0  0  0  0  0  0  0  0  0
    8.4607   -7.0419    0.0000 H   0  0  0  0  0  0  0  0  0  0  0  0
    8.6728   -3.6746    0.0000 H   0  0  0  0  0  0  0  0  0  0  0  0
    8.2742   -2.9844    0.0000 H   0  0  0  0  0  0  0  0  0  0  0  0
    6.5856   -2.9593    0.0000 H   0  0  0  0  0  0  0  0  0  0  0  0
    6.9841   -3.6496    0.0000 H   0  0  0  0  0  0  0  0  0  0  0  0
    7.8067   -2.1747    0.0000 H   0  0  0  0  0  0  0  0  0  0  0  0
    7.4082   -1.4844    0.0000 H   0  0  0  0  0  0  0  0  0  0  0  0
    5.7196   -1.4593    0.0000 H   0  0  0  0  0  0  0  0  0  0  0  0
    6.1181   -2.1496    0.0000 H   0  0  0  0  0  0  0  0  0  0  0  0
    6.9407   -0.6746    0.0000 H   0  0  0  0  0  0  0  0  0  0  0  0
    6.5422    0.0156    0.0000 H   0  0  0  0  0  0  0  0  0  0  0  0
    4.8535    0.0407    0.0000 H   0  0  0  0  0  0  0  0  0  0  0  0
    5.2520   -0.6496    0.0000 H   0  0  0  0  0  0  0  0  0  0  0  0
    6.0747    0.8254    0.0000 H   0  0  0  0  0  0  0  0  0  0  0  0
    5.6762    1.5156    0.0000 H   0  0  0  0  0  0  0  0  0  0  0  0
    3.9875    1.5407    0.0000 H   0  0  0  0  0  0  0  0  0  0  0  0
    4.3860    0.8504    0.0000 H   0  0  0  0  0  0  0  0  0  0  0  0
    5.2087    2.3253    0.0000 H   0  0  0  0  0  0  0  0  0  0  0  0
    4.8101    3.0156    0.0000 H   0  0  0  0  0  0  0  0  0  0  0  0
    3.1215    3.0407    0.0000 H   0  0  0  0  0  0  0  0  0  0  0  0
    3.5200    2.3504    0.0000 H   0  0  0  0  0  0  0  0  0  0  0  0
    4.3426    3.8254    0.0000 H   0  0  0  0  0  0  0  0  0  0  0  0
    3.9441    4.5156    0.0000 H   0  0  0  0  0  0  0  0  0  0  0  0
    2.2554    4.5407    0.0000 H   0  0  0  0  0  0  0  0  0  0  0  0
    2.6540    3.8504    0.0000 H   0  0  0  0  0  0  0  0  0  0  0  0
    3.4766    5.3254    0.0000 H   0  0  0  0  0  0  0  0  0  0  0  0
    3.0781    6.0156    0.0000 H   0  0  0  0  0  0  0  0  0  0  0  0
    1.3894    6.0407    0.0000 H   0  0  0  0  0  0  0  0  0  0  0  0
    1.7880    5.3504    0.0000 H   0  0  0  0  0  0  0  0  0  0  0  0
    5.7741   -5.5300    0.0000 H   0  0  0  0  0  0  0  0  0  0  0  0
    4.9272   -5.7570    0.0000 H   0  0  0  0  0  0  0  0  0  0  0  0
    5.1541   -6.6039    0.0000 H   0  0  0  0  0  0  0  0  0  0  0  0
    2.6200    6.9330    0.0000 H   0  0  0  0  0  0  0  0  0  0  0  0
    2.0000    7.5530    0.0000 H   0  0  0  0  0  0  0  0  0  0  0  0
    1.3800    6.9330    0.0000 H   0  0  0  0  0  0  0  0  0  0  0  0
  1  2  1  0  0  0  0
  1  5  1  0  0  0  0
  1  7  1  0  0  0  0
  1  8  1  0  0  0  0
  2  6  1  0  0  0  0
  3 23  1  0  0  0  0
  3 30  1  0  0  0  0
  4 23  2  0  0  0  0
  5  9  1  0  0  0  0
  5 10  1  0  0  0  0
  5 11  1  0  0  0  0
  6 12  1  0  0  0  0
  6 14  1  0  0  0  0
  6 32  1  0  0  0  0
  7 33  1  0  0  0  0
  7 34  1  0  0  0  0
  7 35  1  0  0  0  0
  8 36  1  0  0  0  0
  8 37  1  0  0  0  0
  8 38  1  0  0  0  0
  9 39  1  0  0  0  0
  9 40  1  0  0  0  0
  9 41  1  0  0  0  0
 10 42  1  0  0  0  0
 10 43  1  0  0  0  0
 10 44  1  0  0  0  0
 11 45  1  0  0  0  0
 11 46  1  0  0  0  0
 11 47  1  0  0  0  0
 12 13  1  0  0  0  0
 12 48  1  0  0  0  0
 12 49  1  0  0  0  0
 13 15  1  0  0  0  0
 13 50  1  0  0  0  0
 13 51  1  0  0  0  0
 14 23  1  0  0  0  0
 14 52  1  0  0  0  0
 14 53  1  0  0  0  0
 15 16  1  0  0  0  0
 15 54  1  0  0  0  0
 15 55  1  0  0  0  0
 16 17  1  0  0  0  0
 16 56  1  0  0  0  0
 16 57  1  0  0  0  0
 17 18  1  0  0  0  0
 17 58  1  0  0  0  0
 17 59  1  0  0  0  0
 18 19  1  0  0  0  0
 18 60  1  0  0  0  0
 18 61  1  0  0  0  0
 19 20  1  0  0  0  0
 19 62  1  0  0  0  0
 19 63  1  0  0  0  0
 20 21  1  0  0  0  0
 20 64  1  0  0  0  0
 20 65  1  0  0  0  0
 21 22  1  0  0  0  0
 21 66  1  0  0  0  0
 21 67  1  0  0  0  0
 22 24  1  0  0  0  0
 22 68  1  0  0  0  0
 22 69  1  0  0  0  0
 24 25  1  0  0  0  0
 24 70  1  0  0  0  0
 24 71  1  0  0  0  0
 25 26  1  0  0  0  0
 25 72  1  0  0  0  0
 25 73  1  0  0  0  0
 26 27  1  0  0  0  0
 26 74  1  0  0  0  0
 26 75  1  0  0  0  0
 27 28  1  0  0  0  0
 27 76  1  0  0  0  0
 27 77  1  0  0  0  0
 28 29  1  0  0  0  0
 28 78  1  0  0  0  0
 28 79  1  0  0  0  0
 29 31  1  0  0  0  0
 29 80  1  0  0  0  0
 29 81  1  0  0  0  0
 30 82  1  0  0  0  0
 30 83  1  0  0  0  0
 30 84  1  0  0  0  0
 31 85  1  0  0  0  0
 31 86  1  0  0  0  0
 31 87  1  0  0  0  0
M  END
> <PUBCHEM_COMPOUND_CID>
526802
> <PUBCHEM_COMPOUND_CANONICALIZED>
1
> <PUBCHEM_CACTVS_COMPLEXITY>
429
> <PUBCHEM_CACTVS_HBOND_ACCEPTOR>
3
> <PUBCHEM_CACTVS_HBOND_DONOR>
0
> <PUBCHEM_CACTVS_ROTATABLE_BOND>
22
> <PUBCHEM_CACTVS_SUBSKEYS>
AAADcfB4MAgAAAAAAAAAAAAAAAAAAAAAAAAAAAAAAAAAAAAAAAAAGhAAAEAADBSgoAJCCAAABAEIAACQCAAAAAAAAAAAAAEAAAAAABYAAAAAAAAFIAAAAAGIyKCAAAAAAAAAAAAAAAAAAAAAAAAAAAAAAA==
> <PUBCHEM_IUPAC_OPENEYE_NAME>
methyl 3-[tert-butyl(dimethyl)silyl]oxyicosanoate
> <PUBCHEM_IUPAC_CAS_NAME>
3-[tert-butyl(dimethyl)silyl]oxyeicosanoic acid methyl ester
> <PUBCHEM_IUPAC_NAME_MARKUP>
methyl 3-[<I>tert</I>-butyl(dimethyl)silyl]oxyicosanoate
> <PUBCHEM_IUPAC_NAME>
methyl 3-[tert-butyl(dimethyl)silyl]oxyicosanoate
> <PUBCHEM_IUPAC_SYSTEMATIC_NAME>
methyl 3-[tert-butyl(dimethyl)silyl]oxyicosanoate
> <PUBCHEM_IUPAC_TRADITIONAL_NAME>
3-[tert-butyl(dimethyl)silyl]oxyarachidic acid methyl ester
> <PUBCHEM_IUPAC_INCHI>
InChI=1S/C27H56O3Si/c1-8-9-10-11-12-13-14-15-16-17-18-19-20-21-22-23-25(24-26(28)29-5)30-31(6,7)27(2,3)4/h25H,8-24H2,1-7H3
> <PUBCHEM_IUPAC_INCHIKEY>
AUEZSDRLGPFCCH-UHFFFAOYSA-N
> <PUBCHEM_EXACT_MASS>
456.39987218
> <PUBCHEM_MOLECULAR_FORMULA>
C27H56O3Si
> <PUBCHEM_MOLECULAR_WEIGHT>
456.8
> <PUBCHEM_OPENEYE_CAN_SMILES>
CCCCCCCCCCCCCCCCCC(CC(=O)OC)O[Si](C)(C)C(C)(C)C
> <PUBCHEM_OPENEYE_ISO_SMILES>
CCCCCCCCCCCCCCCCCC(CC(=O)OC)O[Si](C)(C)C(C)(C)C
> <PUBCHEM_CACTVS_TPSA>
35.5
> <PUBCHEM_MONOISOTOPIC_WEIGHT>
456.39987218
> <PUBCHEM_TOTAL_CHARGE>
0
> <PUBCHEM_HEAVY_ATOM_COUNT>
31
> <PUBCHEM_ATOM_DEF_STEREO_COUNT>
0
> <PUBCHEM_ATOM_UDEF_STEREO_COUNT>
1
> <PUBCHEM_BOND_DEF_STEREO_COUNT>
0
> <PUBCHEM_BOND_UDEF_STEREO_COUNT>
0
> <PUBCHEM_ISOTOPIC_ATOM_COUNT>
0
> <PUBCHEM_COMPONENT_COUNT>
1
> <PUBCHEM_CACTVS_TAUTO_COUNT>
-1
> <PUBCHEM_COORDINATE_TYPE>
1
5
255
> <PUBCHEM_BONDANNOTATIONS>
6  12  3
$$$$
