526831
  -OEChem-10302200292D
 78 77  0     1  0  0  0  0  0999 V2000
   14.1244   -1.8170    0.0000 Si  0  0  0  0  0  0  0  0  0  0  0  0
   13.2583   -2.3170    0.0000 O   0  0  0  0  0  0  0  0  0  0  0  0
    2.8660   -2.3170    0.0000 O   0  0  0  0  0  0  0  0  0  0  0  0
    3.7320   -0.8170    0.0000 O   0  0  0  0  0  0  0  0  0  0  0  0
   14.9904   -1.3170    0.0000 C   0  0  0  0  0  0  0  0  0  0  0  0
   12.3923   -1.8170    0.0000 C   0  0  3  0  0  0  0  0  0  0  0  0
   11.5263   -2.3170    0.0000 C   0  0  0  0  0  0  0  0  0  0  0  0
   12.3923   -0.8170    0.0000 C   0  0  0  0  0  0  0  0  0  0  0  0
   13.6244   -0.9510    0.0000 C   0  0  0  0  0  0  0  0  0  0  0  0
   14.6244   -2.6830    0.0000 C   0  0  0  0  0  0  0  0  0  0  0  0
   15.8564   -0.8170    0.0000 C   0  0  0  0  0  0  0  0  0  0  0  0
   14.4904   -0.4510    0.0000 C   0  0  0  0  0  0  0  0  0  0  0  0
   15.4904   -2.1830    0.0000 C   0  0  0  0  0  0  0  0  0  0  0  0
   10.6603   -1.8170    0.0000 C   0  0  0  0  0  0  0  0  0  0  0  0
   11.5263   -0.3170    0.0000 C   0  0  0  0  0  0  0  0  0  0  0  0
    9.7942   -2.3170    0.0000 C   0  0  0  0  0  0  0  0  0  0  0  0
   11.5263    0.6830    0.0000 C   0  0  0  0  0  0  0  0  0  0  0  0
    8.9282   -1.8170    0.0000 C   0  0  0  0  0  0  0  0  0  0  0  0
    8.0622   -2.3170    0.0000 C   0  0  0  0  0  0  0  0  0  0  0  0
   10.6603    1.1830    0.0000 C   0  0  0  0  0  0  0  0  0  0  0  0
    7.1962   -1.8170    0.0000 C   0  0  0  0  0  0  0  0  0  0  0  0
   10.6603    2.1830    0.0000 C   0  0  0  0  0  0  0  0  0  0  0  0
    6.3301   -2.3170    0.0000 C   0  0  0  0  0  0  0  0  0  0  0  0
    5.4641   -1.8170    0.0000 C   0  0  0  0  0  0  0  0  0  0  0  0
    9.7942    2.6830    0.0000 C   0  0  0  0  0  0  0  0  0  0  0  0
    4.5981   -2.3170    0.0000 C   0  0  0  0  0  0  0  0  0  0  0  0
    3.7320   -1.8170    0.0000 C   0  0  0  0  0  0  0  0  0  0  0  0
    2.0000   -1.8170    0.0000 C   0  0  0  0  0  0  0  0  0  0  0  0
   12.3923   -2.4370    0.0000 H   0  0  0  0  0  0  0  0  0  0  0  0
   11.1278   -2.7919    0.0000 H   0  0  0  0  0  0  0  0  0  0  0  0
   11.9248   -2.7919    0.0000 H   0  0  0  0  0  0  0  0  0  0  0  0
   13.0029   -0.9246    0.0000 H   0  0  0  0  0  0  0  0  0  0  0  0
   12.6044   -0.2344    0.0000 H   0  0  0  0  0  0  0  0  0  0  0  0
   14.1613   -0.6410    0.0000 H   0  0  0  0  0  0  0  0  0  0  0  0
   13.3144   -0.4140    0.0000 H   0  0  0  0  0  0  0  0  0  0  0  0
   13.0874   -1.2610    0.0000 H   0  0  0  0  0  0  0  0  0  0  0  0
   14.0874   -2.9930    0.0000 H   0  0  0  0  0  0  0  0  0  0  0  0
   14.9344   -3.2200    0.0000 H   0  0  0  0  0  0  0  0  0  0  0  0
   15.1613   -2.3730    0.0000 H   0  0  0  0  0  0  0  0  0  0  0  0
   16.1664   -1.3539    0.0000 H   0  0  0  0  0  0  0  0  0  0  0  0
   16.3933   -0.5070    0.0000 H   0  0  0  0  0  0  0  0  0  0  0  0
   15.5464   -0.2801    0.0000 H   0  0  0  0  0  0  0  0  0  0  0  0
   15.0273   -0.1410    0.0000 H   0  0  0  0  0  0  0  0  0  0  0  0
   14.1804    0.0860    0.0000 H   0  0  0  0  0  0  0  0  0  0  0  0
   13.9534   -0.7610    0.0000 H   0  0  0  0  0  0  0  0  0  0  0  0
   14.9534   -2.4930    0.0000 H   0  0  0  0  0  0  0  0  0  0  0  0
   15.8004   -2.7200    0.0000 H   0  0  0  0  0  0  0  0  0  0  0  0
   16.0273   -1.8730    0.0000 H   0  0  0  0  0  0  0  0  0  0  0  0
   11.0588   -1.3420    0.0000 H   0  0  0  0  0  0  0  0  0  0  0  0
   10.2617   -1.3420    0.0000 H   0  0  0  0  0  0  0  0  0  0  0  0
   10.9157   -0.2093    0.0000 H   0  0  0  0  0  0  0  0  0  0  0  0
   11.3142   -0.8996    0.0000 H   0  0  0  0  0  0  0  0  0  0  0  0
    9.3957   -2.7919    0.0000 H   0  0  0  0  0  0  0  0  0  0  0  0
   10.1928   -2.7919    0.0000 H   0  0  0  0  0  0  0  0  0  0  0  0
   12.1369    0.5754    0.0000 H   0  0  0  0  0  0  0  0  0  0  0  0
   11.7383    1.2656    0.0000 H   0  0  0  0  0  0  0  0  0  0  0  0
    9.3267   -1.3420    0.0000 H   0  0  0  0  0  0  0  0  0  0  0  0
    8.5297   -1.3420    0.0000 H   0  0  0  0  0  0  0  0  0  0  0  0
    7.6636   -2.7919    0.0000 H   0  0  0  0  0  0  0  0  0  0  0  0
    8.4607   -2.7919    0.0000 H   0  0  0  0  0  0  0  0  0  0  0  0
   10.0497    1.2907    0.0000 H   0  0  0  0  0  0  0  0  0  0  0  0
   10.4482    0.6004    0.0000 H   0  0  0  0  0  0  0  0  0  0  0  0
    7.5947   -1.3420    0.0000 H   0  0  0  0  0  0  0  0  0  0  0  0
    6.7976   -1.3420    0.0000 H   0  0  0  0  0  0  0  0  0  0  0  0
   11.2708    2.0753    0.0000 H   0  0  0  0  0  0  0  0  0  0  0  0
   10.8723    2.7656    0.0000 H   0  0  0  0  0  0  0  0  0  0  0  0
    5.9316   -2.7919    0.0000 H   0  0  0  0  0  0  0  0  0  0  0  0
    6.7287   -2.7919    0.0000 H   0  0  0  0  0  0  0  0  0  0  0  0
    5.8626   -1.3420    0.0000 H   0  0  0  0  0  0  0  0  0  0  0  0
    5.0656   -1.3420    0.0000 H   0  0  0  0  0  0  0  0  0  0  0  0
   10.1042    3.2200    0.0000 H   0  0  0  0  0  0  0  0  0  0  0  0
    9.2573    2.9930    0.0000 H   0  0  0  0  0  0  0  0  0  0  0  0
    9.4842    2.1461    0.0000 H   0  0  0  0  0  0  0  0  0  0  0  0
    4.1996   -2.7919    0.0000 H   0  0  0  0  0  0  0  0  0  0  0  0
    4.9966   -2.7919    0.0000 H   0  0  0  0  0  0  0  0  0  0  0  0
    2.3100   -1.2800    0.0000 H   0  0  0  0  0  0  0  0  0  0  0  0
    1.4631   -1.5070    0.0000 H   0  0  0  0  0  0  0  0  0  0  0  0
    1.6900   -2.3539    0.0000 H   0  0  0  0  0  0  0  0  0  0  0  0
  1  2  1  0  0  0  0
  1  5  1  0  0  0  0
  1  9  1  0  0  0  0
  1 10  1  0  0  0  0
  2  6  1  0  0  0  0
  3 27  1  0  0  0  0
  3 28  1  0  0  0  0
  4 27  2  0  0  0  0
  5 11  1  0  0  0  0
  5 12  1  0  0  0  0
  5 13  1  0  0  0  0
  6  7  1  0  0  0  0
  6  8  1  0  0  0  0
  6 29  1  0  0  0  0
  7 14  1  0  0  0  0
  7 30  1  0  0  0  0
  7 31  1  0  0  0  0
  8 15  1  0  0  0  0
  8 32  1  0  0  0  0
  8 33  1  0  0  0  0
  9 34  1  0  0  0  0
  9 35  1  0  0  0  0
  9 36  1  0  0  0  0
 10 37  1  0  0  0  0
 10 38  1  0  0  0  0
 10 39  1  0  0  0  0
 11 40  1  0  0  0  0
 11 41  1  0  0  0  0
 11 42  1  0  0  0  0
 12 43  1  0  0  0  0
 12 44  1  0  0  0  0
 12 45  1  0  0  0  0
 13 46  1  0  0  0  0
 13 47  1  0  0  0  0
 13 48  1  0  0  0  0
 14 16  1  0  0  0  0
 14 49  1  0  0  0  0
 14 50  1  0  0  0  0
 15 17  1  0  0  0  0
 15 51  1  0  0  0  0
 15 52  1  0  0  0  0
 16 18  1  0  0  0  0
 16 53  1  0  0  0  0
 16 54  1  0  0  0  0
 17 20  1  0  0  0  0
 17 55  1  0  0  0  0
 17 56  1  0  0  0  0
 18 19  1  0  0  0  0
 18 57  1  0  0  0  0
 18 58  1  0  0  0  0
 19 21  1  0  0  0  0
 19 59  1  0  0  0  0
 19 60  1  0  0  0  0
 20 22  1  0  0  0  0
 20 61  1  0  0  0  0
 20 62  1  0  0  0  0
 21 23  1  0  0  0  0
 21 63  1  0  0  0  0
 21 64  1  0  0  0  0
 22 25  1  0  0  0  0
 22 65  1  0  0  0  0
 22 66  1  0  0  0  0
 23 24  1  0  0  0  0
 23 67  1  0  0  0  0
 23 68  1  0  0  0  0
 24 26  1  0  0  0  0
 24 69  1  0  0  0  0
 24 70  1  0  0  0  0
 25 71  1  0  0  0  0
 25 72  1  0  0  0  0
 25 73  1  0  0  0  0
 26 27  1  0  0  0  0
 26 74  1  0  0  0  0
 26 75  1  0  0  0  0
 28 76  1  0  0  0  0
 28 77  1  0  0  0  0
 28 78  1  0  0  0  0
M  END
> <PUBCHEM_COMPOUND_CID>
526831
> <PUBCHEM_COMPOUND_CANONICALIZED>
1
> <PUBCHEM_CACTVS_COMPLEXITY>
388
> <PUBCHEM_CACTVS_HBOND_ACCEPTOR>
3
> <PUBCHEM_CACTVS_HBOND_DONOR>
0
> <PUBCHEM_CACTVS_ROTATABLE_BOND>
19
> <PUBCHEM_CACTVS_SUBSKEYS>
AAADcfB4MAgAAAAAAAAAAAAAAAAAAAAAAAAAAAAAAAAAAAAAAAAAGhAAAEAADBSgoAJCCAAABAEIAACQCAAAAAAAAAAAAAEAAAAAABIAAAAAAAAEAAAAAAGIyKCAAAAAAAAAAAAAAAAAAAAAAAAAAAAAAA==
> <PUBCHEM_IUPAC_OPENEYE_NAME>
methyl 11-[tert-butyl(dimethyl)silyl]oxyheptadecanoate
> <PUBCHEM_IUPAC_CAS_NAME>
11-[tert-butyl(dimethyl)silyl]oxyheptadecanoic acid methyl ester
> <PUBCHEM_IUPAC_NAME_MARKUP>
methyl 11-[<I>tert</I>-butyl(dimethyl)silyl]oxyheptadecanoate
> <PUBCHEM_IUPAC_NAME>
methyl 11-[tert-butyl(dimethyl)silyl]oxyheptadecanoate
> <PUBCHEM_IUPAC_SYSTEMATIC_NAME>
methyl 11-[tert-butyl(dimethyl)silyl]oxyheptadecanoate
> <PUBCHEM_IUPAC_TRADITIONAL_NAME>
11-[tert-butyl(dimethyl)silyl]oxyheptadecanoic acid methyl ester
> <PUBCHEM_IUPAC_INCHI>
InChI=1S/C24H50O3Si/c1-8-9-10-16-19-22(27-28(6,7)24(2,3)4)20-17-14-12-11-13-15-18-21-23(25)26-5/h22H,8-21H2,1-7H3
> <PUBCHEM_IUPAC_INCHIKEY>
KMXPTBPFBXFRSU-UHFFFAOYSA-N
> <PUBCHEM_EXACT_MASS>
414.35292199
> <PUBCHEM_MOLECULAR_FORMULA>
C24H50O3Si
> <PUBCHEM_MOLECULAR_WEIGHT>
414.7
> <PUBCHEM_OPENEYE_CAN_SMILES>
CCCCCCC(CCCCCCCCCC(=O)OC)O[Si](C)(C)C(C)(C)C
> <PUBCHEM_OPENEYE_ISO_SMILES>
CCCCCCC(CCCCCCCCCC(=O)OC)O[Si](C)(C)C(C)(C)C
> <PUBCHEM_CACTVS_TPSA>
35.5
> <PUBCHEM_MONOISOTOPIC_WEIGHT>
414.35292199
> <PUBCHEM_TOTAL_CHARGE>
0
> <PUBCHEM_HEAVY_ATOM_COUNT>
28
> <PUBCHEM_ATOM_DEF_STEREO_COUNT>
0
> <PUBCHEM_ATOM_UDEF_STEREO_COUNT>
1
> <PUBCHEM_BOND_DEF_STEREO_COUNT>
0
> <PUBCHEM_BOND_UDEF_STEREO_COUNT>
0
> <PUBCHEM_ISOTOPIC_ATOM_COUNT>
0
> <PUBCHEM_COMPONENT_COUNT>
1
> <PUBCHEM_CACTVS_TAUTO_COUNT>
-1
> <PUBCHEM_COORDINATE_TYPE>
1
5
255
> <PUBCHEM_BONDANNOTATIONS>
6  8  3
$$$$
