526812
  -OEChem-10302200292D
 84 83  0     1  0  0  0  0  0999 V2000
   19.3205   -0.3170    0.0000 Si  0  0  0  0  0  0  0  0  0  0  0  0
   18.4545   -0.8170    0.0000 O   0  0  0  0  0  0  0  0  0  0  0  0
    2.8660   -0.8170    0.0000 O   0  0  0  0  0  0  0  0  0  0  0  0
    3.7320    0.6830    0.0000 O   0  0  0  0  0  0  0  0  0  0  0  0
   20.1865    0.1830    0.0000 C   0  0  0  0  0  0  0  0  0  0  0  0
   17.5885   -0.3170    0.0000 C   0  0  3  0  0  0  0  0  0  0  0  0
   18.8205    0.5490    0.0000 C   0  0  0  0  0  0  0  0  0  0  0  0
   19.8205   -1.1830    0.0000 C   0  0  0  0  0  0  0  0  0  0  0  0
   21.0526    0.6830    0.0000 C   0  0  0  0  0  0  0  0  0  0  0  0
   19.6865    1.0490    0.0000 C   0  0  0  0  0  0  0  0  0  0  0  0
   20.6865   -0.6830    0.0000 C   0  0  0  0  0  0  0  0  0  0  0  0
   16.7224   -0.8170    0.0000 C   0  0  0  0  0  0  0  0  0  0  0  0
   15.8564   -0.3170    0.0000 C   0  0  0  0  0  0  0  0  0  0  0  0
   17.5885    0.6830    0.0000 C   0  0  0  0  0  0  0  0  0  0  0  0
   14.9904   -0.8170    0.0000 C   0  0  0  0  0  0  0  0  0  0  0  0
   14.1244   -0.3170    0.0000 C   0  0  0  0  0  0  0  0  0  0  0  0
   13.2583   -0.8170    0.0000 C   0  0  0  0  0  0  0  0  0  0  0  0
   12.3923   -0.3170    0.0000 C   0  0  0  0  0  0  0  0  0  0  0  0
   16.7224    1.1830    0.0000 C   0  0  0  0  0  0  0  0  0  0  0  0
   11.5263   -0.8170    0.0000 C   0  0  0  0  0  0  0  0  0  0  0  0
   10.6603   -0.3170    0.0000 C   0  0  0  0  0  0  0  0  0  0  0  0
    9.7942   -0.8170    0.0000 C   0  0  0  0  0  0  0  0  0  0  0  0
    8.9282   -0.3170    0.0000 C   0  0  0  0  0  0  0  0  0  0  0  0
    8.0622   -0.8170    0.0000 C   0  0  0  0  0  0  0  0  0  0  0  0
    7.1962   -0.3170    0.0000 C   0  0  0  0  0  0  0  0  0  0  0  0
    6.3301   -0.8170    0.0000 C   0  0  0  0  0  0  0  0  0  0  0  0
    5.4641   -0.3170    0.0000 C   0  0  0  0  0  0  0  0  0  0  0  0
    4.5981   -0.8170    0.0000 C   0  0  0  0  0  0  0  0  0  0  0  0
    3.7320   -0.3170    0.0000 C   0  0  0  0  0  0  0  0  0  0  0  0
    2.0000   -0.3170    0.0000 C   0  0  0  0  0  0  0  0  0  0  0  0
   17.5885   -0.9370    0.0000 H   0  0  0  0  0  0  0  0  0  0  0  0
   19.3574    0.8590    0.0000 H   0  0  0  0  0  0  0  0  0  0  0  0
   18.5105    1.0860    0.0000 H   0  0  0  0  0  0  0  0  0  0  0  0
   18.2836    0.2390    0.0000 H   0  0  0  0  0  0  0  0  0  0  0  0
   19.2836   -1.4930    0.0000 H   0  0  0  0  0  0  0  0  0  0  0  0
   20.1305   -1.7200    0.0000 H   0  0  0  0  0  0  0  0  0  0  0  0
   20.3574   -0.8730    0.0000 H   0  0  0  0  0  0  0  0  0  0  0  0
   21.3626    0.1461    0.0000 H   0  0  0  0  0  0  0  0  0  0  0  0
   21.5895    0.9930    0.0000 H   0  0  0  0  0  0  0  0  0  0  0  0
   20.7426    1.2200    0.0000 H   0  0  0  0  0  0  0  0  0  0  0  0
   20.2235    1.3590    0.0000 H   0  0  0  0  0  0  0  0  0  0  0  0
   19.3765    1.5860    0.0000 H   0  0  0  0  0  0  0  0  0  0  0  0
   19.1496    0.7390    0.0000 H   0  0  0  0  0  0  0  0  0  0  0  0
   20.1496   -0.9930    0.0000 H   0  0  0  0  0  0  0  0  0  0  0  0
   20.9965   -1.2200    0.0000 H   0  0  0  0  0  0  0  0  0  0  0  0
   21.2235   -0.3730    0.0000 H   0  0  0  0  0  0  0  0  0  0  0  0
   16.3239   -1.2919    0.0000 H   0  0  0  0  0  0  0  0  0  0  0  0
   17.1210   -1.2919    0.0000 H   0  0  0  0  0  0  0  0  0  0  0  0
   16.2549    0.1580    0.0000 H   0  0  0  0  0  0  0  0  0  0  0  0
   15.4579    0.1580    0.0000 H   0  0  0  0  0  0  0  0  0  0  0  0
   18.1990    0.5754    0.0000 H   0  0  0  0  0  0  0  0  0  0  0  0
   17.8005    1.2656    0.0000 H   0  0  0  0  0  0  0  0  0  0  0  0
   14.5919   -1.2919    0.0000 H   0  0  0  0  0  0  0  0  0  0  0  0
   15.3889   -1.2919    0.0000 H   0  0  0  0  0  0  0  0  0  0  0  0
   14.5229    0.1580    0.0000 H   0  0  0  0  0  0  0  0  0  0  0  0
   13.7258    0.1580    0.0000 H   0  0  0  0  0  0  0  0  0  0  0  0
   12.8598   -1.2919    0.0000 H   0  0  0  0  0  0  0  0  0  0  0  0
   13.6569   -1.2919    0.0000 H   0  0  0  0  0  0  0  0  0  0  0  0
   12.7908    0.1580    0.0000 H   0  0  0  0  0  0  0  0  0  0  0  0
   11.9938    0.1580    0.0000 H   0  0  0  0  0  0  0  0  0  0  0  0
   17.0324    1.7200    0.0000 H   0  0  0  0  0  0  0  0  0  0  0  0
   16.1855    1.4930    0.0000 H   0  0  0  0  0  0  0  0  0  0  0  0
   16.4124    0.6461    0.0000 H   0  0  0  0  0  0  0  0  0  0  0  0
   11.1278   -1.2919    0.0000 H   0  0  0  0  0  0  0  0  0  0  0  0
   11.9248   -1.2919    0.0000 H   0  0  0  0  0  0  0  0  0  0  0  0
   11.0588    0.1580    0.0000 H   0  0  0  0  0  0  0  0  0  0  0  0
   10.2617    0.1580    0.0000 H   0  0  0  0  0  0  0  0  0  0  0  0
    9.3957   -1.2919    0.0000 H   0  0  0  0  0  0  0  0  0  0  0  0
   10.1928   -1.2919    0.0000 H   0  0  0  0  0  0  0  0  0  0  0  0
    9.3267    0.1580    0.0000 H   0  0  0  0  0  0  0  0  0  0  0  0
    8.5297    0.1580    0.0000 H   0  0  0  0  0  0  0  0  0  0  0  0
    7.6636   -1.2919    0.0000 H   0  0  0  0  0  0  0  0  0  0  0  0
    8.4607   -1.2919    0.0000 H   0  0  0  0  0  0  0  0  0  0  0  0
    7.5947    0.1580    0.0000 H   0  0  0  0  0  0  0  0  0  0  0  0
    6.7976    0.1580    0.0000 H   0  0  0  0  0  0  0  0  0  0  0  0
    5.9316   -1.2919    0.0000 H   0  0  0  0  0  0  0  0  0  0  0  0
    6.7287   -1.2919    0.0000 H   0  0  0  0  0  0  0  0  0  0  0  0
    5.8626    0.1580    0.0000 H   0  0  0  0  0  0  0  0  0  0  0  0
    5.0656    0.1580    0.0000 H   0  0  0  0  0  0  0  0  0  0  0  0
    4.1996   -1.2919    0.0000 H   0  0  0  0  0  0  0  0  0  0  0  0
    4.9966   -1.2919    0.0000 H   0  0  0  0  0  0  0  0  0  0  0  0
    2.3100    0.2199    0.0000 H   0  0  0  0  0  0  0  0  0  0  0  0
    1.4631   -0.0070    0.0000 H   0  0  0  0  0  0  0  0  0  0  0  0
    1.6900   -0.8539    0.0000 H   0  0  0  0  0  0  0  0  0  0  0  0
  1  2  1  0  0  0  0
  1  5  1  0  0  0  0
  1  7  1  0  0  0  0
  1  8  1  0  0  0  0
  2  6  1  0  0  0  0
  3 29  1  0  0  0  0
  3 30  1  0  0  0  0
  4 29  2  0  0  0  0
  5  9  1  0  0  0  0
  5 10  1  0  0  0  0
  5 11  1  0  0  0  0
  6 12  1  0  0  0  0
  6 14  1  0  0  0  0
  6 31  1  0  0  0  0
  7 32  1  0  0  0  0
  7 33  1  0  0  0  0
  7 34  1  0  0  0  0
  8 35  1  0  0  0  0
  8 36  1  0  0  0  0
  8 37  1  0  0  0  0
  9 38  1  0  0  0  0
  9 39  1  0  0  0  0
  9 40  1  0  0  0  0
 10 41  1  0  0  0  0
 10 42  1  0  0  0  0
 10 43  1  0  0  0  0
 11 44  1  0  0  0  0
 11 45  1  0  0  0  0
 11 46  1  0  0  0  0
 12 13  1  0  0  0  0
 12 47  1  0  0  0  0
 12 48  1  0  0  0  0
 13 15  1  0  0  0  0
 13 49  1  0  0  0  0
 13 50  1  0  0  0  0
 14 19  1  0  0  0  0
 14 51  1  0  0  0  0
 14 52  1  0  0  0  0
 15 16  1  0  0  0  0
 15 53  1  0  0  0  0
 15 54  1  0  0  0  0
 16 17  1  0  0  0  0
 16 55  1  0  0  0  0
 16 56  1  0  0  0  0
 17 18  1  0  0  0  0
 17 57  1  0  0  0  0
 17 58  1  0  0  0  0
 18 20  1  0  0  0  0
 18 59  1  0  0  0  0
 18 60  1  0  0  0  0
 19 61  1  0  0  0  0
 19 62  1  0  0  0  0
 19 63  1  0  0  0  0
 20 21  1  0  0  0  0
 20 64  1  0  0  0  0
 20 65  1  0  0  0  0
 21 22  1  0  0  0  0
 21 66  1  0  0  0  0
 21 67  1  0  0  0  0
 22 23  1  0  0  0  0
 22 68  1  0  0  0  0
 22 69  1  0  0  0  0
 23 24  1  0  0  0  0
 23 70  1  0  0  0  0
 23 71  1  0  0  0  0
 24 25  1  0  0  0  0
 24 72  1  0  0  0  0
 24 73  1  0  0  0  0
 25 26  1  0  0  0  0
 25 74  1  0  0  0  0
 25 75  1  0  0  0  0
 26 27  1  0  0  0  0
 26 76  1  0  0  0  0
 26 77  1  0  0  0  0
 27 28  1  0  0  0  0
 27 78  1  0  0  0  0
 27 79  1  0  0  0  0
 28 29  1  0  0  0  0
 28 80  1  0  0  0  0
 28 81  1  0  0  0  0
 30 82  1  0  0  0  0
 30 83  1  0  0  0  0
 30 84  1  0  0  0  0
M  END
> <PUBCHEM_COMPOUND_CID>
526812
> <PUBCHEM_COMPOUND_CANONICALIZED>
1
> <PUBCHEM_CACTVS_COMPLEXITY>
415
> <PUBCHEM_CACTVS_HBOND_ACCEPTOR>
3
> <PUBCHEM_CACTVS_HBOND_DONOR>
0
> <PUBCHEM_CACTVS_ROTATABLE_BOND>
21
> <PUBCHEM_CACTVS_SUBSKEYS>
AAADcfB4MAgAAAAAAAAAAAAAAAAAAAAAAAAAAAAAAAAAAAAAAAAAGhAAAEAADBSgoAJCCAAABAEIAACQCAAAAAAAAAAAAAEAAAAAABIAAAAAAAAEAAAAAAGIyKCAAAAAAAAAAAAAAAAAAAAAAAAAAAAAAA==
> <PUBCHEM_IUPAC_OPENEYE_NAME>
methyl 17-[tert-butyl(dimethyl)silyl]oxynonadecanoate
> <PUBCHEM_IUPAC_CAS_NAME>
17-[tert-butyl(dimethyl)silyl]oxynonadecanoic acid methyl ester
> <PUBCHEM_IUPAC_NAME_MARKUP>
methyl 17-[<I>tert</I>-butyl(dimethyl)silyl]oxynonadecanoate
> <PUBCHEM_IUPAC_NAME>
methyl 17-[tert-butyl(dimethyl)silyl]oxynonadecanoate
> <PUBCHEM_IUPAC_SYSTEMATIC_NAME>
methyl 17-[tert-butyl(dimethyl)silyl]oxynonadecanoate
> <PUBCHEM_IUPAC_TRADITIONAL_NAME>
17-[tert-butyl(dimethyl)silyl]oxynonadecanoic acid methyl ester
> <PUBCHEM_IUPAC_INCHI>
InChI=1S/C26H54O3Si/c1-8-24(29-30(6,7)26(2,3)4)22-20-18-16-14-12-10-9-11-13-15-17-19-21-23-25(27)28-5/h24H,8-23H2,1-7H3
> <PUBCHEM_IUPAC_INCHIKEY>
KODFYAKVRMKFCV-UHFFFAOYSA-N
> <PUBCHEM_EXACT_MASS>
442.38422211
> <PUBCHEM_MOLECULAR_FORMULA>
C26H54O3Si
> <PUBCHEM_MOLECULAR_WEIGHT>
442.8
> <PUBCHEM_OPENEYE_CAN_SMILES>
CCC(CCCCCCCCCCCCCCCC(=O)OC)O[Si](C)(C)C(C)(C)C
> <PUBCHEM_OPENEYE_ISO_SMILES>
CCC(CCCCCCCCCCCCCCCC(=O)OC)O[Si](C)(C)C(C)(C)C
> <PUBCHEM_CACTVS_TPSA>
35.5
> <PUBCHEM_MONOISOTOPIC_WEIGHT>
442.38422211
> <PUBCHEM_TOTAL_CHARGE>
0
> <PUBCHEM_HEAVY_ATOM_COUNT>
30
> <PUBCHEM_ATOM_DEF_STEREO_COUNT>
0
> <PUBCHEM_ATOM_UDEF_STEREO_COUNT>
1
> <PUBCHEM_BOND_DEF_STEREO_COUNT>
0
> <PUBCHEM_BOND_UDEF_STEREO_COUNT>
0
> <PUBCHEM_ISOTOPIC_ATOM_COUNT>
0
> <PUBCHEM_COMPONENT_COUNT>
1
> <PUBCHEM_CACTVS_TAUTO_COUNT>
-1
> <PUBCHEM_COORDINATE_TYPE>
1
5
255
> <PUBCHEM_BONDANNOTATIONS>
6  14  3
$$$$
