526801
  -OEChem-10302200292D
 81 80  0     1  0  0  0  0  0999 V2000
   10.6603   -5.2500    0.0000 Si  0  0  0  0  0  0  0  0  0  0  0  0
    9.7942   -5.7500    0.0000 O   0  0  0  0  0  0  0  0  0  0  0  0
    7.1962   -5.2500    0.0000 O   0  0  0  0  0  0  0  0  0  0  0  0
    8.0622   -6.7500    0.0000 O   0  0  0  0  0  0  0  0  0  0  0  0
   11.5263   -4.7500    0.0000 C   0  0  0  0  0  0  0  0  0  0  0  0
   12.3923   -4.2500    0.0000 C   0  0  0  0  0  0  0  0  0  0  0  0
   11.0263   -3.8840    0.0000 C   0  0  0  0  0  0  0  0  0  0  0  0
   12.0263   -5.6160    0.0000 C   0  0  0  0  0  0  0  0  0  0  0  0
   10.1603   -4.3840    0.0000 C   0  0  0  0  0  0  0  0  0  0  0  0
   11.1603   -6.1160    0.0000 C   0  0  0  0  0  0  0  0  0  0  0  0
    8.9282   -5.2500    0.0000 C   0  0  3  0  0  0  0  0  0  0  0  0
    8.9282   -4.2500    0.0000 C   0  0  0  0  0  0  0  0  0  0  0  0
    8.0622   -3.7500    0.0000 C   0  0  0  0  0  0  0  0  0  0  0  0
    8.0622   -2.7500    0.0000 C   0  0  0  0  0  0  0  0  0  0  0  0
    7.1962   -2.2500    0.0000 C   0  0  0  0  0  0  0  0  0  0  0  0
    7.1962   -1.2500    0.0000 C   0  0  0  0  0  0  0  0  0  0  0  0
    6.3301   -0.7500    0.0000 C   0  0  0  0  0  0  0  0  0  0  0  0
    6.3301    0.2500    0.0000 C   0  0  0  0  0  0  0  0  0  0  0  0
    5.4641    0.7500    0.0000 C   0  0  0  0  0  0  0  0  0  0  0  0
    8.0622   -5.7500    0.0000 C   0  0  0  0  0  0  0  0  0  0  0  0
    5.4641    1.7500    0.0000 C   0  0  0  0  0  0  0  0  0  0  0  0
    4.5981    2.2500    0.0000 C   0  0  0  0  0  0  0  0  0  0  0  0
    4.5981    3.2500    0.0000 C   0  0  0  0  0  0  0  0  0  0  0  0
    3.7320    3.7500    0.0000 C   0  0  0  0  0  0  0  0  0  0  0  0
    3.7320    4.7500    0.0000 C   0  0  0  0  0  0  0  0  0  0  0  0
    2.8660    5.2500    0.0000 C   0  0  0  0  0  0  0  0  0  0  0  0
    2.8660    6.2500    0.0000 C   0  0  0  0  0  0  0  0  0  0  0  0
    6.3301   -5.7500    0.0000 C   0  0  0  0  0  0  0  0  0  0  0  0
    2.0000    6.7500    0.0000 C   0  0  0  0  0  0  0  0  0  0  0  0
   12.7023   -4.7869    0.0000 H   0  0  0  0  0  0  0  0  0  0  0  0
   12.9292   -3.9400    0.0000 H   0  0  0  0  0  0  0  0  0  0  0  0
   12.0823   -3.7131    0.0000 H   0  0  0  0  0  0  0  0  0  0  0  0
   11.5632   -3.5740    0.0000 H   0  0  0  0  0  0  0  0  0  0  0  0
   10.7163   -3.3470    0.0000 H   0  0  0  0  0  0  0  0  0  0  0  0
   10.4893   -4.1940    0.0000 H   0  0  0  0  0  0  0  0  0  0  0  0
   11.4893   -5.9260    0.0000 H   0  0  0  0  0  0  0  0  0  0  0  0
   12.3363   -6.1530    0.0000 H   0  0  0  0  0  0  0  0  0  0  0  0
   12.5632   -5.3060    0.0000 H   0  0  0  0  0  0  0  0  0  0  0  0
   10.6972   -4.0740    0.0000 H   0  0  0  0  0  0  0  0  0  0  0  0
    9.8503   -3.8470    0.0000 H   0  0  0  0  0  0  0  0  0  0  0  0
    9.6233   -4.6940    0.0000 H   0  0  0  0  0  0  0  0  0  0  0  0
   10.6233   -6.4260    0.0000 H   0  0  0  0  0  0  0  0  0  0  0  0
   11.4703   -6.6530    0.0000 H   0  0  0  0  0  0  0  0  0  0  0  0
   11.6972   -5.8060    0.0000 H   0  0  0  0  0  0  0  0  0  0  0  0
    9.4651   -4.9400    0.0000 H   0  0  0  0  0  0  0  0  0  0  0  0
    9.5388   -4.3577    0.0000 H   0  0  0  0  0  0  0  0  0  0  0  0
    9.1403   -3.6674    0.0000 H   0  0  0  0  0  0  0  0  0  0  0  0
    7.4516   -3.6423    0.0000 H   0  0  0  0  0  0  0  0  0  0  0  0
    7.8501   -4.3326    0.0000 H   0  0  0  0  0  0  0  0  0  0  0  0
    8.6728   -2.8577    0.0000 H   0  0  0  0  0  0  0  0  0  0  0  0
    8.2742   -2.1674    0.0000 H   0  0  0  0  0  0  0  0  0  0  0  0
    6.5856   -2.1423    0.0000 H   0  0  0  0  0  0  0  0  0  0  0  0
    6.9841   -2.8326    0.0000 H   0  0  0  0  0  0  0  0  0  0  0  0
    7.8067   -1.3577    0.0000 H   0  0  0  0  0  0  0  0  0  0  0  0
    7.4082   -0.6674    0.0000 H   0  0  0  0  0  0  0  0  0  0  0  0
    5.7196   -0.6423    0.0000 H   0  0  0  0  0  0  0  0  0  0  0  0
    6.1181   -1.3326    0.0000 H   0  0  0  0  0  0  0  0  0  0  0  0
    6.9407    0.1423    0.0000 H   0  0  0  0  0  0  0  0  0  0  0  0
    6.5422    0.8326    0.0000 H   0  0  0  0  0  0  0  0  0  0  0  0
    4.8535    0.8577    0.0000 H   0  0  0  0  0  0  0  0  0  0  0  0
    5.2520    0.1674    0.0000 H   0  0  0  0  0  0  0  0  0  0  0  0
    6.0747    1.6423    0.0000 H   0  0  0  0  0  0  0  0  0  0  0  0
    5.6762    2.3326    0.0000 H   0  0  0  0  0  0  0  0  0  0  0  0
    3.9875    2.3577    0.0000 H   0  0  0  0  0  0  0  0  0  0  0  0
    4.3860    1.6674    0.0000 H   0  0  0  0  0  0  0  0  0  0  0  0
    5.2087    3.1423    0.0000 H   0  0  0  0  0  0  0  0  0  0  0  0
    4.8101    3.8326    0.0000 H   0  0  0  0  0  0  0  0  0  0  0  0
    3.1215    3.8577    0.0000 H   0  0  0  0  0  0  0  0  0  0  0  0
    3.5200    3.1674    0.0000 H   0  0  0  0  0  0  0  0  0  0  0  0
    4.3426    4.6423    0.0000 H   0  0  0  0  0  0  0  0  0  0  0  0
    3.9441    5.3326    0.0000 H   0  0  0  0  0  0  0  0  0  0  0  0
    2.2554    5.3577    0.0000 H   0  0  0  0  0  0  0  0  0  0  0  0
    2.6540    4.6674    0.0000 H   0  0  0  0  0  0  0  0  0  0  0  0
    3.4766    6.1423    0.0000 H   0  0  0  0  0  0  0  0  0  0  0  0
    3.0781    6.8326    0.0000 H   0  0  0  0  0  0  0  0  0  0  0  0
    6.0201   -5.2131    0.0000 H   0  0  0  0  0  0  0  0  0  0  0  0
    5.7932   -6.0600    0.0000 H   0  0  0  0  0  0  0  0  0  0  0  0
    6.6401   -6.2869    0.0000 H   0  0  0  0  0  0  0  0  0  0  0  0
    2.3100    7.2869    0.0000 H   0  0  0  0  0  0  0  0  0  0  0  0
    1.4631    7.0600    0.0000 H   0  0  0  0  0  0  0  0  0  0  0  0
    1.6900    6.2131    0.0000 H   0  0  0  0  0  0  0  0  0  0  0  0
  1  2  1  0  0  0  0
  1  5  1  0  0  0  0
  1  9  1  0  0  0  0
  1 10  1  0  0  0  0
  2 11  1  0  0  0  0
  3 20  1  0  0  0  0
  3 28  1  0  0  0  0
  4 20  2  0  0  0  0
  5  6  1  0  0  0  0
  5  7  1  0  0  0  0
  5  8  1  0  0  0  0
  6 30  1  0  0  0  0
  6 31  1  0  0  0  0
  6 32  1  0  0  0  0
  7 33  1  0  0  0  0
  7 34  1  0  0  0  0
  7 35  1  0  0  0  0
  8 36  1  0  0  0  0
  8 37  1  0  0  0  0
  8 38  1  0  0  0  0
  9 39  1  0  0  0  0
  9 40  1  0  0  0  0
  9 41  1  0  0  0  0
 10 42  1  0  0  0  0
 10 43  1  0  0  0  0
 10 44  1  0  0  0  0
 11 12  1  0  0  0  0
 11 20  1  0  0  0  0
 11 45  1  0  0  0  0
 12 13  1  0  0  0  0
 12 46  1  0  0  0  0
 12 47  1  0  0  0  0
 13 14  1  0  0  0  0
 13 48  1  0  0  0  0
 13 49  1  0  0  0  0
 14 15  1  0  0  0  0
 14 50  1  0  0  0  0
 14 51  1  0  0  0  0
 15 16  1  0  0  0  0
 15 52  1  0  0  0  0
 15 53  1  0  0  0  0
 16 17  1  0  0  0  0
 16 54  1  0  0  0  0
 16 55  1  0  0  0  0
 17 18  1  0  0  0  0
 17 56  1  0  0  0  0
 17 57  1  0  0  0  0
 18 19  1  0  0  0  0
 18 58  1  0  0  0  0
 18 59  1  0  0  0  0
 19 21  1  0  0  0  0
 19 60  1  0  0  0  0
 19 61  1  0  0  0  0
 21 22  1  0  0  0  0
 21 62  1  0  0  0  0
 21 63  1  0  0  0  0
 22 23  1  0  0  0  0
 22 64  1  0  0  0  0
 22 65  1  0  0  0  0
 23 24  1  0  0  0  0
 23 66  1  0  0  0  0
 23 67  1  0  0  0  0
 24 25  1  0  0  0  0
 24 68  1  0  0  0  0
 24 69  1  0  0  0  0
 25 26  1  0  0  0  0
 25 70  1  0  0  0  0
 25 71  1  0  0  0  0
 26 27  1  0  0  0  0
 26 72  1  0  0  0  0
 26 73  1  0  0  0  0
 27 29  1  0  0  0  0
 27 74  1  0  0  0  0
 27 75  1  0  0  0  0
 28 76  1  0  0  0  0
 28 77  1  0  0  0  0
 28 78  1  0  0  0  0
 29 79  1  0  0  0  0
 29 80  1  0  0  0  0
 29 81  1  0  0  0  0
M  END
> <PUBCHEM_COMPOUND_CID>
526801
> <PUBCHEM_COMPOUND_CANONICALIZED>
1
> <PUBCHEM_CACTVS_COMPLEXITY>
401
> <PUBCHEM_CACTVS_HBOND_ACCEPTOR>
3
> <PUBCHEM_CACTVS_HBOND_DONOR>
0
> <PUBCHEM_CACTVS_ROTATABLE_BOND>
20
> <PUBCHEM_CACTVS_SUBSKEYS>
AAADcfB4MAgAAAAAAAAAAAAAAAAAAAAAAAAAAAAAAAAAAAAAAAAAGhAAAEAADBSgoAJCCAAABAEIAACQCAIAAAAAAAAAAAFAAAABABIAAAAAAAAEAAACAAGIyKCAAAAAAAAAAAAAAAAAAAAAAAAAAAAAAA==
> <PUBCHEM_IUPAC_OPENEYE_NAME>
methyl 2-[tert-butyl(dimethyl)silyl]oxyoctadecanoate
> <PUBCHEM_IUPAC_CAS_NAME>
2-[tert-butyl(dimethyl)silyl]oxyoctadecanoic acid methyl ester
> <PUBCHEM_IUPAC_NAME_MARKUP>
methyl 2-[<I>tert</I>-butyl(dimethyl)silyl]oxyoctadecanoate
> <PUBCHEM_IUPAC_NAME>
methyl 2-[tert-butyl(dimethyl)silyl]oxyoctadecanoate
> <PUBCHEM_IUPAC_SYSTEMATIC_NAME>
methyl 2-[tert-butyl(dimethyl)silyl]oxyoctadecanoate
> <PUBCHEM_IUPAC_TRADITIONAL_NAME>
2-[tert-butyl(dimethyl)silyl]oxystearic acid methyl ester
> <PUBCHEM_IUPAC_INCHI>
InChI=1S/C25H52O3Si/c1-8-9-10-11-12-13-14-15-16-17-18-19-20-21-22-23(24(26)27-5)28-29(6,7)25(2,3)4/h23H,8-22H2,1-7H3
> <PUBCHEM_IUPAC_INCHIKEY>
PFTZLDWPEZKGPE-UHFFFAOYSA-N
> <PUBCHEM_EXACT_MASS>
428.36857205
> <PUBCHEM_MOLECULAR_FORMULA>
C25H52O3Si
> <PUBCHEM_MOLECULAR_WEIGHT>
428.8
> <PUBCHEM_OPENEYE_CAN_SMILES>
CCCCCCCCCCCCCCCCC(C(=O)OC)O[Si](C)(C)C(C)(C)C
> <PUBCHEM_OPENEYE_ISO_SMILES>
CCCCCCCCCCCCCCCCC(C(=O)OC)O[Si](C)(C)C(C)(C)C
> <PUBCHEM_CACTVS_TPSA>
35.5
> <PUBCHEM_MONOISOTOPIC_WEIGHT>
428.36857205
> <PUBCHEM_TOTAL_CHARGE>
0
> <PUBCHEM_HEAVY_ATOM_COUNT>
29
> <PUBCHEM_ATOM_DEF_STEREO_COUNT>
0
> <PUBCHEM_ATOM_UDEF_STEREO_COUNT>
1
> <PUBCHEM_BOND_DEF_STEREO_COUNT>
0
> <PUBCHEM_BOND_UDEF_STEREO_COUNT>
0
> <PUBCHEM_ISOTOPIC_ATOM_COUNT>
0
> <PUBCHEM_COMPONENT_COUNT>
1
> <PUBCHEM_CACTVS_TAUTO_COUNT>
-1
> <PUBCHEM_COORDINATE_TYPE>
1
5
255
> <PUBCHEM_BONDANNOTATIONS>
11  12  3
$$$$
