526830
  -OEChem-10302200292D
 87 86  0     1  0  0  0  0  0999 V2000
   16.7224   -1.5000    0.0000 Si  0  0  0  0  0  0  0  0  0  0  0  0
   15.8564   -2.0000    0.0000 O   0  0  0  0  0  0  0  0  0  0  0  0
    2.8660   -1.5000    0.0000 O   0  0  0  0  0  0  0  0  0  0  0  0
    3.7320   -3.0000    0.0000 O   0  0  0  0  0  0  0  0  0  0  0  0
   17.5885   -1.0000    0.0000 C   0  0  0  0  0  0  0  0  0  0  0  0
   14.9904   -1.5000    0.0000 C   0  0  3  0  0  0  0  0  0  0  0  0
   14.1244   -2.0000    0.0000 C   0  0  0  0  0  0  0  0  0  0  0  0
   14.9904   -0.5000    0.0000 C   0  0  0  0  0  0  0  0  0  0  0  0
   16.2224   -0.6340    0.0000 C   0  0  0  0  0  0  0  0  0  0  0  0
   17.2224   -2.3660    0.0000 C   0  0  0  0  0  0  0  0  0  0  0  0
   18.4545   -0.5000    0.0000 C   0  0  0  0  0  0  0  0  0  0  0  0
   17.0885   -0.1340    0.0000 C   0  0  0  0  0  0  0  0  0  0  0  0
   18.0885   -1.8660    0.0000 C   0  0  0  0  0  0  0  0  0  0  0  0
   13.2583   -1.5000    0.0000 C   0  0  0  0  0  0  0  0  0  0  0  0
   14.1244    0.0000    0.0000 C   0  0  0  0  0  0  0  0  0  0  0  0
   12.3923   -2.0000    0.0000 C   0  0  0  0  0  0  0  0  0  0  0  0
   11.5263   -1.5000    0.0000 C   0  0  0  0  0  0  0  0  0  0  0  0
   14.1244    1.0000    0.0000 C   0  0  0  0  0  0  0  0  0  0  0  0
   10.6603   -2.0000    0.0000 C   0  0  0  0  0  0  0  0  0  0  0  0
   13.2583    1.5000    0.0000 C   0  0  0  0  0  0  0  0  0  0  0  0
    9.7942   -1.5000    0.0000 C   0  0  0  0  0  0  0  0  0  0  0  0
    8.9282   -2.0000    0.0000 C   0  0  0  0  0  0  0  0  0  0  0  0
    8.0622   -1.5000    0.0000 C   0  0  0  0  0  0  0  0  0  0  0  0
   13.2583    2.5000    0.0000 C   0  0  0  0  0  0  0  0  0  0  0  0
    7.1962   -2.0000    0.0000 C   0  0  0  0  0  0  0  0  0  0  0  0
    6.3301   -1.5000    0.0000 C   0  0  0  0  0  0  0  0  0  0  0  0
   12.3923    3.0000    0.0000 C   0  0  0  0  0  0  0  0  0  0  0  0
    5.4641   -2.0000    0.0000 C   0  0  0  0  0  0  0  0  0  0  0  0
    4.5981   -1.5000    0.0000 C   0  0  0  0  0  0  0  0  0  0  0  0
    3.7320   -2.0000    0.0000 C   0  0  0  0  0  0  0  0  0  0  0  0
    2.0000   -2.0000    0.0000 C   0  0  0  0  0  0  0  0  0  0  0  0
   15.5273   -1.1900    0.0000 H   0  0  0  0  0  0  0  0  0  0  0  0
   13.7258   -2.4750    0.0000 H   0  0  0  0  0  0  0  0  0  0  0  0
   14.5229   -2.4750    0.0000 H   0  0  0  0  0  0  0  0  0  0  0  0
   15.6010   -0.6077    0.0000 H   0  0  0  0  0  0  0  0  0  0  0  0
   15.2024    0.0826    0.0000 H   0  0  0  0  0  0  0  0  0  0  0  0
   16.7594   -0.3240    0.0000 H   0  0  0  0  0  0  0  0  0  0  0  0
   15.9124   -0.0970    0.0000 H   0  0  0  0  0  0  0  0  0  0  0  0
   15.6855   -0.9440    0.0000 H   0  0  0  0  0  0  0  0  0  0  0  0
   16.6855   -2.6760    0.0000 H   0  0  0  0  0  0  0  0  0  0  0  0
   17.5324   -2.9030    0.0000 H   0  0  0  0  0  0  0  0  0  0  0  0
   17.7594   -2.0560    0.0000 H   0  0  0  0  0  0  0  0  0  0  0  0
   18.7645   -1.0369    0.0000 H   0  0  0  0  0  0  0  0  0  0  0  0
   18.9914   -0.1900    0.0000 H   0  0  0  0  0  0  0  0  0  0  0  0
   18.1445    0.0369    0.0000 H   0  0  0  0  0  0  0  0  0  0  0  0
   17.6254    0.1760    0.0000 H   0  0  0  0  0  0  0  0  0  0  0  0
   16.7785    0.4030    0.0000 H   0  0  0  0  0  0  0  0  0  0  0  0
   16.5515   -0.4440    0.0000 H   0  0  0  0  0  0  0  0  0  0  0  0
   17.5515   -2.1760    0.0000 H   0  0  0  0  0  0  0  0  0  0  0  0
   18.3985   -2.4030    0.0000 H   0  0  0  0  0  0  0  0  0  0  0  0
   18.6254   -1.5560    0.0000 H   0  0  0  0  0  0  0  0  0  0  0  0
   13.6569   -1.0250    0.0000 H   0  0  0  0  0  0  0  0  0  0  0  0
   12.8598   -1.0250    0.0000 H   0  0  0  0  0  0  0  0  0  0  0  0
   13.5138    0.1077    0.0000 H   0  0  0  0  0  0  0  0  0  0  0  0
   13.9123   -0.5826    0.0000 H   0  0  0  0  0  0  0  0  0  0  0  0
   11.9938   -2.4750    0.0000 H   0  0  0  0  0  0  0  0  0  0  0  0
   12.7908   -2.4750    0.0000 H   0  0  0  0  0  0  0  0  0  0  0  0
   11.9248   -1.0250    0.0000 H   0  0  0  0  0  0  0  0  0  0  0  0
   11.1278   -1.0250    0.0000 H   0  0  0  0  0  0  0  0  0  0  0  0
   14.7349    0.8923    0.0000 H   0  0  0  0  0  0  0  0  0  0  0  0
   14.3364    1.5826    0.0000 H   0  0  0  0  0  0  0  0  0  0  0  0
   10.2617   -2.4750    0.0000 H   0  0  0  0  0  0  0  0  0  0  0  0
   11.0588   -2.4750    0.0000 H   0  0  0  0  0  0  0  0  0  0  0  0
   12.6477    1.6077    0.0000 H   0  0  0  0  0  0  0  0  0  0  0  0
   13.0463    0.9174    0.0000 H   0  0  0  0  0  0  0  0  0  0  0  0
   10.1928   -1.0250    0.0000 H   0  0  0  0  0  0  0  0  0  0  0  0
    9.3957   -1.0250    0.0000 H   0  0  0  0  0  0  0  0  0  0  0  0
    8.5297   -2.4750    0.0000 H   0  0  0  0  0  0  0  0  0  0  0  0
    9.3267   -2.4750    0.0000 H   0  0  0  0  0  0  0  0  0  0  0  0
    8.4607   -1.0250    0.0000 H   0  0  0  0  0  0  0  0  0  0  0  0
    7.6636   -1.0250    0.0000 H   0  0  0  0  0  0  0  0  0  0  0  0
   13.8689    2.3923    0.0000 H   0  0  0  0  0  0  0  0  0  0  0  0
   13.4704    3.0826    0.0000 H   0  0  0  0  0  0  0  0  0  0  0  0
    6.7976   -2.4750    0.0000 H   0  0  0  0  0  0  0  0  0  0  0  0
    7.5947   -2.4750    0.0000 H   0  0  0  0  0  0  0  0  0  0  0  0
    6.7287   -1.0250    0.0000 H   0  0  0  0  0  0  0  0  0  0  0  0
    5.9316   -1.0250    0.0000 H   0  0  0  0  0  0  0  0  0  0  0  0
   12.7023    3.5369    0.0000 H   0  0  0  0  0  0  0  0  0  0  0  0
   11.8554    3.3100    0.0000 H   0  0  0  0  0  0  0  0  0  0  0  0
   12.0823    2.4631    0.0000 H   0  0  0  0  0  0  0  0  0  0  0  0
    5.0656   -2.4750    0.0000 H   0  0  0  0  0  0  0  0  0  0  0  0
    5.8626   -2.4750    0.0000 H   0  0  0  0  0  0  0  0  0  0  0  0
    4.9966   -1.0250    0.0000 H   0  0  0  0  0  0  0  0  0  0  0  0
    4.1996   -1.0250    0.0000 H   0  0  0  0  0  0  0  0  0  0  0  0
    1.6900   -1.4631    0.0000 H   0  0  0  0  0  0  0  0  0  0  0  0
    1.4631   -2.3100    0.0000 H   0  0  0  0  0  0  0  0  0  0  0  0
    2.3100   -2.5369    0.0000 H   0  0  0  0  0  0  0  0  0  0  0  0
  1  2  1  0  0  0  0
  1  5  1  0  0  0  0
  1  9  1  0  0  0  0
  1 10  1  0  0  0  0
  2  6  1  0  0  0  0
  3 30  1  0  0  0  0
  3 31  1  0  0  0  0
  4 30  2  0  0  0  0
  5 11  1  0  0  0  0
  5 12  1  0  0  0  0
  5 13  1  0  0  0  0
  6  7  1  0  0  0  0
  6  8  1  0  0  0  0
  6 32  1  0  0  0  0
  7 14  1  0  0  0  0
  7 33  1  0  0  0  0
  7 34  1  0  0  0  0
  8 15  1  0  0  0  0
  8 35  1  0  0  0  0
  8 36  1  0  0  0  0
  9 37  1  0  0  0  0
  9 38  1  0  0  0  0
  9 39  1  0  0  0  0
 10 40  1  0  0  0  0
 10 41  1  0  0  0  0
 10 42  1  0  0  0  0
 11 43  1  0  0  0  0
 11 44  1  0  0  0  0
 11 45  1  0  0  0  0
 12 46  1  0  0  0  0
 12 47  1  0  0  0  0
 12 48  1  0  0  0  0
 13 49  1  0  0  0  0
 13 50  1  0  0  0  0
 13 51  1  0  0  0  0
 14 16  1  0  0  0  0
 14 52  1  0  0  0  0
 14 53  1  0  0  0  0
 15 18  1  0  0  0  0
 15 54  1  0  0  0  0
 15 55  1  0  0  0  0
 16 17  1  0  0  0  0
 16 56  1  0  0  0  0
 16 57  1  0  0  0  0
 17 19  1  0  0  0  0
 17 58  1  0  0  0  0
 17 59  1  0  0  0  0
 18 20  1  0  0  0  0
 18 60  1  0  0  0  0
 18 61  1  0  0  0  0
 19 21  1  0  0  0  0
 19 62  1  0  0  0  0
 19 63  1  0  0  0  0
 20 24  1  0  0  0  0
 20 64  1  0  0  0  0
 20 65  1  0  0  0  0
 21 22  1  0  0  0  0
 21 66  1  0  0  0  0
 21 67  1  0  0  0  0
 22 23  1  0  0  0  0
 22 68  1  0  0  0  0
 22 69  1  0  0  0  0
 23 25  1  0  0  0  0
 23 70  1  0  0  0  0
 23 71  1  0  0  0  0
 24 27  1  0  0  0  0
 24 72  1  0  0  0  0
 24 73  1  0  0  0  0
 25 26  1  0  0  0  0
 25 74  1  0  0  0  0
 25 75  1  0  0  0  0
 26 28  1  0  0  0  0
 26 76  1  0  0  0  0
 26 77  1  0  0  0  0
 27 78  1  0  0  0  0
 27 79  1  0  0  0  0
 27 80  1  0  0  0  0
 28 29  1  0  0  0  0
 28 81  1  0  0  0  0
 28 82  1  0  0  0  0
 29 30  1  0  0  0  0
 29 83  1  0  0  0  0
 29 84  1  0  0  0  0
 31 85  1  0  0  0  0
 31 86  1  0  0  0  0
 31 87  1  0  0  0  0
M  END
> <PUBCHEM_COMPOUND_CID>
526830
> <PUBCHEM_COMPOUND_CANONICALIZED>
1
> <PUBCHEM_CACTVS_COMPLEXITY>
429
> <PUBCHEM_CACTVS_HBOND_ACCEPTOR>
3
> <PUBCHEM_CACTVS_HBOND_DONOR>
0
> <PUBCHEM_CACTVS_ROTATABLE_BOND>
22
> <PUBCHEM_CACTVS_SUBSKEYS>
AAADcfB4MAgAAAAAAAAAAAAAAAAAAAAAAAAAAAAAAAAAAAAAAAAAGhAAAEAADBSgoAJCCAAABAEIAACQCAAAAAAAAAAAAAEAAAAAABIAAAAAAAAEAAAAAAGIyKCAAAAAAAAAAAAAAAAAAAAAAAAAAAAAAA==
> <PUBCHEM_IUPAC_OPENEYE_NAME>
methyl 14-[tert-butyl(dimethyl)silyl]oxyicosanoate
> <PUBCHEM_IUPAC_CAS_NAME>
14-[tert-butyl(dimethyl)silyl]oxyeicosanoic acid methyl ester
> <PUBCHEM_IUPAC_NAME_MARKUP>
methyl 14-[<I>tert</I>-butyl(dimethyl)silyl]oxyicosanoate
> <PUBCHEM_IUPAC_NAME>
methyl 14-[tert-butyl(dimethyl)silyl]oxyicosanoate
> <PUBCHEM_IUPAC_SYSTEMATIC_NAME>
methyl 14-[tert-butyl(dimethyl)silyl]oxyicosanoate
> <PUBCHEM_IUPAC_TRADITIONAL_NAME>
14-[tert-butyl(dimethyl)silyl]oxyarachidic acid methyl ester
> <PUBCHEM_IUPAC_INCHI>
InChI=1S/C27H56O3Si/c1-8-9-10-19-22-25(30-31(6,7)27(2,3)4)23-20-17-15-13-11-12-14-16-18-21-24-26(28)29-5/h25H,8-24H2,1-7H3
> <PUBCHEM_IUPAC_INCHIKEY>
HIKVBVUOACNTMN-UHFFFAOYSA-N
> <PUBCHEM_EXACT_MASS>
456.39987218
> <PUBCHEM_MOLECULAR_FORMULA>
C27H56O3Si
> <PUBCHEM_MOLECULAR_WEIGHT>
456.8
> <PUBCHEM_OPENEYE_CAN_SMILES>
CCCCCCC(CCCCCCCCCCCCC(=O)OC)O[Si](C)(C)C(C)(C)C
> <PUBCHEM_OPENEYE_ISO_SMILES>
CCCCCCC(CCCCCCCCCCCCC(=O)OC)O[Si](C)(C)C(C)(C)C
> <PUBCHEM_CACTVS_TPSA>
35.5
> <PUBCHEM_MONOISOTOPIC_WEIGHT>
456.39987218
> <PUBCHEM_TOTAL_CHARGE>
0
> <PUBCHEM_HEAVY_ATOM_COUNT>
31
> <PUBCHEM_ATOM_DEF_STEREO_COUNT>
0
> <PUBCHEM_ATOM_UDEF_STEREO_COUNT>
1
> <PUBCHEM_BOND_DEF_STEREO_COUNT>
0
> <PUBCHEM_BOND_UDEF_STEREO_COUNT>
0
> <PUBCHEM_ISOTOPIC_ATOM_COUNT>
0
> <PUBCHEM_COMPONENT_COUNT>
1
> <PUBCHEM_CACTVS_TAUTO_COUNT>
-1
> <PUBCHEM_COORDINATE_TYPE>
1
5
255
> <PUBCHEM_BONDANNOTATIONS>
6  8  3
$$$$
