526822
  -OEChem-10302200292D
 84 83  0     1  0  0  0  0  0999 V2000
   17.5885   -1.0670    0.0000 Si  0  0  0  0  0  0  0  0  0  0  0  0
   16.7224   -1.5670    0.0000 O   0  0  0  0  0  0  0  0  0  0  0  0
    2.8660   -1.5670    0.0000 O   0  0  0  0  0  0  0  0  0  0  0  0
    3.7320   -0.0670    0.0000 O   0  0  0  0  0  0  0  0  0  0  0  0
   18.4545   -0.5670    0.0000 C   0  0  0  0  0  0  0  0  0  0  0  0
   15.8564   -1.0670    0.0000 C   0  0  3  0  0  0  0  0  0  0  0  0
   14.9904   -1.5670    0.0000 C   0  0  0  0  0  0  0  0  0  0  0  0
   17.0885   -0.2010    0.0000 C   0  0  0  0  0  0  0  0  0  0  0  0
   18.0885   -1.9330    0.0000 C   0  0  0  0  0  0  0  0  0  0  0  0
   19.3205   -0.0670    0.0000 C   0  0  0  0  0  0  0  0  0  0  0  0
   17.9545    0.2990    0.0000 C   0  0  0  0  0  0  0  0  0  0  0  0
   18.9545   -1.4330    0.0000 C   0  0  0  0  0  0  0  0  0  0  0  0
   15.8564   -0.0670    0.0000 C   0  0  0  0  0  0  0  0  0  0  0  0
   14.1244   -1.0670    0.0000 C   0  0  0  0  0  0  0  0  0  0  0  0
   13.2583   -1.5670    0.0000 C   0  0  0  0  0  0  0  0  0  0  0  0
   14.9904    0.4330    0.0000 C   0  0  0  0  0  0  0  0  0  0  0  0
   12.3923   -1.0670    0.0000 C   0  0  0  0  0  0  0  0  0  0  0  0
   11.5263   -1.5670    0.0000 C   0  0  0  0  0  0  0  0  0  0  0  0
   14.9904    1.4330    0.0000 C   0  0  0  0  0  0  0  0  0  0  0  0
   10.6603   -1.0670    0.0000 C   0  0  0  0  0  0  0  0  0  0  0  0
    9.7942   -1.5670    0.0000 C   0  0  0  0  0  0  0  0  0  0  0  0
    8.9282   -1.0670    0.0000 C   0  0  0  0  0  0  0  0  0  0  0  0
    8.0622   -1.5670    0.0000 C   0  0  0  0  0  0  0  0  0  0  0  0
   14.1244    1.9330    0.0000 C   0  0  0  0  0  0  0  0  0  0  0  0
    7.1962   -1.0670    0.0000 C   0  0  0  0  0  0  0  0  0  0  0  0
    6.3301   -1.5670    0.0000 C   0  0  0  0  0  0  0  0  0  0  0  0
    5.4641   -1.0670    0.0000 C   0  0  0  0  0  0  0  0  0  0  0  0
    4.5981   -1.5670    0.0000 C   0  0  0  0  0  0  0  0  0  0  0  0
    3.7320   -1.0670    0.0000 C   0  0  0  0  0  0  0  0  0  0  0  0
    2.0000   -1.0670    0.0000 C   0  0  0  0  0  0  0  0  0  0  0  0
   16.3933   -0.7570    0.0000 H   0  0  0  0  0  0  0  0  0  0  0  0
   14.5919   -2.0419    0.0000 H   0  0  0  0  0  0  0  0  0  0  0  0
   15.3889   -2.0419    0.0000 H   0  0  0  0  0  0  0  0  0  0  0  0
   17.6254    0.1090    0.0000 H   0  0  0  0  0  0  0  0  0  0  0  0
   16.7785    0.3360    0.0000 H   0  0  0  0  0  0  0  0  0  0  0  0
   16.5515   -0.5110    0.0000 H   0  0  0  0  0  0  0  0  0  0  0  0
   17.5515   -2.2430    0.0000 H   0  0  0  0  0  0  0  0  0  0  0  0
   18.3985   -2.4700    0.0000 H   0  0  0  0  0  0  0  0  0  0  0  0
   18.6254   -1.6230    0.0000 H   0  0  0  0  0  0  0  0  0  0  0  0
   19.6305   -0.6039    0.0000 H   0  0  0  0  0  0  0  0  0  0  0  0
   19.8574    0.2430    0.0000 H   0  0  0  0  0  0  0  0  0  0  0  0
   19.0105    0.4699    0.0000 H   0  0  0  0  0  0  0  0  0  0  0  0
   18.4914    0.6090    0.0000 H   0  0  0  0  0  0  0  0  0  0  0  0
   17.6445    0.8360    0.0000 H   0  0  0  0  0  0  0  0  0  0  0  0
   17.4175   -0.0110    0.0000 H   0  0  0  0  0  0  0  0  0  0  0  0
   18.4175   -1.7430    0.0000 H   0  0  0  0  0  0  0  0  0  0  0  0
   19.2645   -1.9700    0.0000 H   0  0  0  0  0  0  0  0  0  0  0  0
   19.4914   -1.1230    0.0000 H   0  0  0  0  0  0  0  0  0  0  0  0
   16.4670   -0.1746    0.0000 H   0  0  0  0  0  0  0  0  0  0  0  0
   16.0685    0.5156    0.0000 H   0  0  0  0  0  0  0  0  0  0  0  0
   14.5229   -0.5920    0.0000 H   0  0  0  0  0  0  0  0  0  0  0  0
   13.7258   -0.5920    0.0000 H   0  0  0  0  0  0  0  0  0  0  0  0
   12.8598   -2.0419    0.0000 H   0  0  0  0  0  0  0  0  0  0  0  0
   13.6569   -2.0419    0.0000 H   0  0  0  0  0  0  0  0  0  0  0  0
   14.3798    0.5407    0.0000 H   0  0  0  0  0  0  0  0  0  0  0  0
   14.7783   -0.1496    0.0000 H   0  0  0  0  0  0  0  0  0  0  0  0
   12.7908   -0.5920    0.0000 H   0  0  0  0  0  0  0  0  0  0  0  0
   11.9938   -0.5920    0.0000 H   0  0  0  0  0  0  0  0  0  0  0  0
   11.1278   -2.0419    0.0000 H   0  0  0  0  0  0  0  0  0  0  0  0
   11.9248   -2.0419    0.0000 H   0  0  0  0  0  0  0  0  0  0  0  0
   15.6010    1.3254    0.0000 H   0  0  0  0  0  0  0  0  0  0  0  0
   15.2024    2.0156    0.0000 H   0  0  0  0  0  0  0  0  0  0  0  0
   11.0588   -0.5920    0.0000 H   0  0  0  0  0  0  0  0  0  0  0  0
   10.2617   -0.5920    0.0000 H   0  0  0  0  0  0  0  0  0  0  0  0
    9.3957   -2.0419    0.0000 H   0  0  0  0  0  0  0  0  0  0  0  0
   10.1928   -2.0419    0.0000 H   0  0  0  0  0  0  0  0  0  0  0  0
    9.3267   -0.5920    0.0000 H   0  0  0  0  0  0  0  0  0  0  0  0
    8.5297   -0.5920    0.0000 H   0  0  0  0  0  0  0  0  0  0  0  0
    7.6636   -2.0419    0.0000 H   0  0  0  0  0  0  0  0  0  0  0  0
    8.4607   -2.0419    0.0000 H   0  0  0  0  0  0  0  0  0  0  0  0
   14.4344    2.4700    0.0000 H   0  0  0  0  0  0  0  0  0  0  0  0
   13.5874    2.2430    0.0000 H   0  0  0  0  0  0  0  0  0  0  0  0
   13.8144    1.3961    0.0000 H   0  0  0  0  0  0  0  0  0  0  0  0
    7.5947   -0.5920    0.0000 H   0  0  0  0  0  0  0  0  0  0  0  0
    6.7976   -0.5920    0.0000 H   0  0  0  0  0  0  0  0  0  0  0  0
    5.9316   -2.0419    0.0000 H   0  0  0  0  0  0  0  0  0  0  0  0
    6.7287   -2.0419    0.0000 H   0  0  0  0  0  0  0  0  0  0  0  0
    5.8626   -0.5920    0.0000 H   0  0  0  0  0  0  0  0  0  0  0  0
    5.0656   -0.5920    0.0000 H   0  0  0  0  0  0  0  0  0  0  0  0
    4.1996   -2.0419    0.0000 H   0  0  0  0  0  0  0  0  0  0  0  0
    4.9966   -2.0419    0.0000 H   0  0  0  0  0  0  0  0  0  0  0  0
    2.3100   -0.5301    0.0000 H   0  0  0  0  0  0  0  0  0  0  0  0
    1.4631   -0.7570    0.0000 H   0  0  0  0  0  0  0  0  0  0  0  0
    1.6900   -1.6039    0.0000 H   0  0  0  0  0  0  0  0  0  0  0  0
  1  2  1  0  0  0  0
  1  5  1  0  0  0  0
  1  8  1  0  0  0  0
  1  9  1  0  0  0  0
  2  6  1  0  0  0  0
  3 29  1  0  0  0  0
  3 30  1  0  0  0  0
  4 29  2  0  0  0  0
  5 10  1  0  0  0  0
  5 11  1  0  0  0  0
  5 12  1  0  0  0  0
  6  7  1  0  0  0  0
  6 13  1  0  0  0  0
  6 31  1  0  0  0  0
  7 14  1  0  0  0  0
  7 32  1  0  0  0  0
  7 33  1  0  0  0  0
  8 34  1  0  0  0  0
  8 35  1  0  0  0  0
  8 36  1  0  0  0  0
  9 37  1  0  0  0  0
  9 38  1  0  0  0  0
  9 39  1  0  0  0  0
 10 40  1  0  0  0  0
 10 41  1  0  0  0  0
 10 42  1  0  0  0  0
 11 43  1  0  0  0  0
 11 44  1  0  0  0  0
 11 45  1  0  0  0  0
 12 46  1  0  0  0  0
 12 47  1  0  0  0  0
 12 48  1  0  0  0  0
 13 16  1  0  0  0  0
 13 49  1  0  0  0  0
 13 50  1  0  0  0  0
 14 15  1  0  0  0  0
 14 51  1  0  0  0  0
 14 52  1  0  0  0  0
 15 17  1  0  0  0  0
 15 53  1  0  0  0  0
 15 54  1  0  0  0  0
 16 19  1  0  0  0  0
 16 55  1  0  0  0  0
 16 56  1  0  0  0  0
 17 18  1  0  0  0  0
 17 57  1  0  0  0  0
 17 58  1  0  0  0  0
 18 20  1  0  0  0  0
 18 59  1  0  0  0  0
 18 60  1  0  0  0  0
 19 24  1  0  0  0  0
 19 61  1  0  0  0  0
 19 62  1  0  0  0  0
 20 21  1  0  0  0  0
 20 63  1  0  0  0  0
 20 64  1  0  0  0  0
 21 22  1  0  0  0  0
 21 65  1  0  0  0  0
 21 66  1  0  0  0  0
 22 23  1  0  0  0  0
 22 67  1  0  0  0  0
 22 68  1  0  0  0  0
 23 25  1  0  0  0  0
 23 69  1  0  0  0  0
 23 70  1  0  0  0  0
 24 71  1  0  0  0  0
 24 72  1  0  0  0  0
 24 73  1  0  0  0  0
 25 26  1  0  0  0  0
 25 74  1  0  0  0  0
 25 75  1  0  0  0  0
 26 27  1  0  0  0  0
 26 76  1  0  0  0  0
 26 77  1  0  0  0  0
 27 28  1  0  0  0  0
 27 78  1  0  0  0  0
 27 79  1  0  0  0  0
 28 29  1  0  0  0  0
 28 80  1  0  0  0  0
 28 81  1  0  0  0  0
 30 82  1  0  0  0  0
 30 83  1  0  0  0  0
 30 84  1  0  0  0  0
M  END
> <PUBCHEM_COMPOUND_CID>
526822
> <PUBCHEM_COMPOUND_CANONICALIZED>
1
> <PUBCHEM_CACTVS_COMPLEXITY>
415
> <PUBCHEM_CACTVS_HBOND_ACCEPTOR>
3
> <PUBCHEM_CACTVS_HBOND_DONOR>
0
> <PUBCHEM_CACTVS_ROTATABLE_BOND>
21
> <PUBCHEM_CACTVS_SUBSKEYS>
AAADcfB4MAgAAAAAAAAAAAAAAAAAAAAAAAAAAAAAAAAAAAAAAAAAGhAAAEAADBSgoAJCCAAABAEIAACQCAAAAAAAAAAAAAEAAAAAABIAAAAAAAAEAAAAAAGIyKCAAAAAAAAAAAAAAAAAAAAAAAAAAAAAAA==
> <PUBCHEM_IUPAC_OPENEYE_NAME>
methyl 15-[tert-butyl(dimethyl)silyl]oxynonadecanoate
> <PUBCHEM_IUPAC_CAS_NAME>
15-[tert-butyl(dimethyl)silyl]oxynonadecanoic acid methyl ester
> <PUBCHEM_IUPAC_NAME_MARKUP>
methyl 15-[<I>tert</I>-butyl(dimethyl)silyl]oxynonadecanoate
> <PUBCHEM_IUPAC_NAME>
methyl 15-[tert-butyl(dimethyl)silyl]oxynonadecanoate
> <PUBCHEM_IUPAC_SYSTEMATIC_NAME>
methyl 15-[tert-butyl(dimethyl)silyl]oxynonadecanoate
> <PUBCHEM_IUPAC_TRADITIONAL_NAME>
15-[tert-butyl(dimethyl)silyl]oxynonadecanoic acid methyl ester
> <PUBCHEM_IUPAC_INCHI>
InChI=1S/C26H54O3Si/c1-8-9-21-24(29-30(6,7)26(2,3)4)22-19-17-15-13-11-10-12-14-16-18-20-23-25(27)28-5/h24H,8-23H2,1-7H3
> <PUBCHEM_IUPAC_INCHIKEY>
NCNBNJVRCNKCKB-UHFFFAOYSA-N
> <PUBCHEM_EXACT_MASS>
442.38422211
> <PUBCHEM_MOLECULAR_FORMULA>
C26H54O3Si
> <PUBCHEM_MOLECULAR_WEIGHT>
442.8
> <PUBCHEM_OPENEYE_CAN_SMILES>
CCCCC(CCCCCCCCCCCCCC(=O)OC)O[Si](C)(C)C(C)(C)C
> <PUBCHEM_OPENEYE_ISO_SMILES>
CCCCC(CCCCCCCCCCCCCC(=O)OC)O[Si](C)(C)C(C)(C)C
> <PUBCHEM_CACTVS_TPSA>
35.5
> <PUBCHEM_MONOISOTOPIC_WEIGHT>
442.38422211
> <PUBCHEM_TOTAL_CHARGE>
0
> <PUBCHEM_HEAVY_ATOM_COUNT>
30
> <PUBCHEM_ATOM_DEF_STEREO_COUNT>
0
> <PUBCHEM_ATOM_UDEF_STEREO_COUNT>
1
> <PUBCHEM_BOND_DEF_STEREO_COUNT>
0
> <PUBCHEM_BOND_UDEF_STEREO_COUNT>
0
> <PUBCHEM_ISOTOPIC_ATOM_COUNT>
0
> <PUBCHEM_COMPONENT_COUNT>
1
> <PUBCHEM_CACTVS_TAUTO_COUNT>
-1
> <PUBCHEM_COORDINATE_TYPE>
1
5
255
> <PUBCHEM_BONDANNOTATIONS>
6  13  3
$$$$
