526827
  -OEChem-10302200292D
 84 83  0     1  0  0  0  0  0999 V2000
   16.7224   -1.2500    0.0000 Si  0  0  0  0  0  0  0  0  0  0  0  0
   15.8564   -1.7500    0.0000 O   0  0  0  0  0  0  0  0  0  0  0  0
    2.8660   -1.2500    0.0000 O   0  0  0  0  0  0  0  0  0  0  0  0
    3.7320   -2.7500    0.0000 O   0  0  0  0  0  0  0  0  0  0  0  0
   17.5885   -0.7500    0.0000 C   0  0  0  0  0  0  0  0  0  0  0  0
   14.9904   -1.2500    0.0000 C   0  0  3  0  0  0  0  0  0  0  0  0
   14.1244   -1.7500    0.0000 C   0  0  0  0  0  0  0  0  0  0  0  0
   16.2224   -0.3840    0.0000 C   0  0  0  0  0  0  0  0  0  0  0  0
   17.2224   -2.1160    0.0000 C   0  0  0  0  0  0  0  0  0  0  0  0
   14.9904   -0.2500    0.0000 C   0  0  0  0  0  0  0  0  0  0  0  0
   18.4545   -0.2500    0.0000 C   0  0  0  0  0  0  0  0  0  0  0  0
   17.0885    0.1160    0.0000 C   0  0  0  0  0  0  0  0  0  0  0  0
   18.0885   -1.6160    0.0000 C   0  0  0  0  0  0  0  0  0  0  0  0
   13.2583   -1.2500    0.0000 C   0  0  0  0  0  0  0  0  0  0  0  0
   14.1244    0.2500    0.0000 C   0  0  0  0  0  0  0  0  0  0  0  0
   12.3923   -1.7500    0.0000 C   0  0  0  0  0  0  0  0  0  0  0  0
   11.5263   -1.2500    0.0000 C   0  0  0  0  0  0  0  0  0  0  0  0
   14.1244    1.2500    0.0000 C   0  0  0  0  0  0  0  0  0  0  0  0
   10.6603   -1.7500    0.0000 C   0  0  0  0  0  0  0  0  0  0  0  0
    9.7942   -1.2500    0.0000 C   0  0  0  0  0  0  0  0  0  0  0  0
   13.2583    1.7500    0.0000 C   0  0  0  0  0  0  0  0  0  0  0  0
    8.9282   -1.7500    0.0000 C   0  0  0  0  0  0  0  0  0  0  0  0
    8.0622   -1.2500    0.0000 C   0  0  0  0  0  0  0  0  0  0  0  0
    7.1962   -1.7500    0.0000 C   0  0  0  0  0  0  0  0  0  0  0  0
   13.2583    2.7500    0.0000 C   0  0  0  0  0  0  0  0  0  0  0  0
    6.3301   -1.2500    0.0000 C   0  0  0  0  0  0  0  0  0  0  0  0
    5.4641   -1.7500    0.0000 C   0  0  0  0  0  0  0  0  0  0  0  0
    4.5981   -1.2500    0.0000 C   0  0  0  0  0  0  0  0  0  0  0  0
    3.7320   -1.7500    0.0000 C   0  0  0  0  0  0  0  0  0  0  0  0
    2.0000   -1.7500    0.0000 C   0  0  0  0  0  0  0  0  0  0  0  0
   15.5273   -0.9400    0.0000 H   0  0  0  0  0  0  0  0  0  0  0  0
   13.7258   -2.2250    0.0000 H   0  0  0  0  0  0  0  0  0  0  0  0
   14.5229   -2.2250    0.0000 H   0  0  0  0  0  0  0  0  0  0  0  0
   16.7594   -0.0740    0.0000 H   0  0  0  0  0  0  0  0  0  0  0  0
   15.9124    0.1530    0.0000 H   0  0  0  0  0  0  0  0  0  0  0  0
   15.6855   -0.6940    0.0000 H   0  0  0  0  0  0  0  0  0  0  0  0
   16.6855   -2.4260    0.0000 H   0  0  0  0  0  0  0  0  0  0  0  0
   17.5324   -2.6530    0.0000 H   0  0  0  0  0  0  0  0  0  0  0  0
   17.7594   -1.8060    0.0000 H   0  0  0  0  0  0  0  0  0  0  0  0
   15.6010   -0.3577    0.0000 H   0  0  0  0  0  0  0  0  0  0  0  0
   15.2024    0.3326    0.0000 H   0  0  0  0  0  0  0  0  0  0  0  0
   18.7645   -0.7869    0.0000 H   0  0  0  0  0  0  0  0  0  0  0  0
   18.9914    0.0600    0.0000 H   0  0  0  0  0  0  0  0  0  0  0  0
   18.1445    0.2869    0.0000 H   0  0  0  0  0  0  0  0  0  0  0  0
   17.6254    0.4260    0.0000 H   0  0  0  0  0  0  0  0  0  0  0  0
   16.7785    0.6530    0.0000 H   0  0  0  0  0  0  0  0  0  0  0  0
   16.5515   -0.1940    0.0000 H   0  0  0  0  0  0  0  0  0  0  0  0
   17.5515   -1.9260    0.0000 H   0  0  0  0  0  0  0  0  0  0  0  0
   18.3985   -2.1530    0.0000 H   0  0  0  0  0  0  0  0  0  0  0  0
   18.6254   -1.3060    0.0000 H   0  0  0  0  0  0  0  0  0  0  0  0
   13.6569   -0.7751    0.0000 H   0  0  0  0  0  0  0  0  0  0  0  0
   12.8598   -0.7751    0.0000 H   0  0  0  0  0  0  0  0  0  0  0  0
   13.5138    0.3577    0.0000 H   0  0  0  0  0  0  0  0  0  0  0  0
   13.9123   -0.3326    0.0000 H   0  0  0  0  0  0  0  0  0  0  0  0
   11.9938   -2.2250    0.0000 H   0  0  0  0  0  0  0  0  0  0  0  0
   12.7908   -2.2250    0.0000 H   0  0  0  0  0  0  0  0  0  0  0  0
   11.9248   -0.7751    0.0000 H   0  0  0  0  0  0  0  0  0  0  0  0
   11.1278   -0.7751    0.0000 H   0  0  0  0  0  0  0  0  0  0  0  0
   14.7349    1.1423    0.0000 H   0  0  0  0  0  0  0  0  0  0  0  0
   14.3364    1.8326    0.0000 H   0  0  0  0  0  0  0  0  0  0  0  0
   10.2617   -2.2250    0.0000 H   0  0  0  0  0  0  0  0  0  0  0  0
   11.0588   -2.2250    0.0000 H   0  0  0  0  0  0  0  0  0  0  0  0
   10.1928   -0.7751    0.0000 H   0  0  0  0  0  0  0  0  0  0  0  0
    9.3957   -0.7751    0.0000 H   0  0  0  0  0  0  0  0  0  0  0  0
    8.5297   -2.2250    0.0000 H   0  0  0  0  0  0  0  0  0  0  0  0
    9.3267   -2.2250    0.0000 H   0  0  0  0  0  0  0  0  0  0  0  0
   12.6477    1.8577    0.0000 H   0  0  0  0  0  0  0  0  0  0  0  0
   13.0463    1.1674    0.0000 H   0  0  0  0  0  0  0  0  0  0  0  0
    8.4607   -0.7751    0.0000 H   0  0  0  0  0  0  0  0  0  0  0  0
    7.6636   -0.7751    0.0000 H   0  0  0  0  0  0  0  0  0  0  0  0
    6.7976   -2.2250    0.0000 H   0  0  0  0  0  0  0  0  0  0  0  0
    7.5947   -2.2250    0.0000 H   0  0  0  0  0  0  0  0  0  0  0  0
   13.8783    2.7500    0.0000 H   0  0  0  0  0  0  0  0  0  0  0  0
   13.2583    3.3700    0.0000 H   0  0  0  0  0  0  0  0  0  0  0  0
   12.6383    2.7500    0.0000 H   0  0  0  0  0  0  0  0  0  0  0  0
    6.7287   -0.7751    0.0000 H   0  0  0  0  0  0  0  0  0  0  0  0
    5.9316   -0.7751    0.0000 H   0  0  0  0  0  0  0  0  0  0  0  0
    5.0656   -2.2250    0.0000 H   0  0  0  0  0  0  0  0  0  0  0  0
    5.8626   -2.2250    0.0000 H   0  0  0  0  0  0  0  0  0  0  0  0
    4.9966   -0.7751    0.0000 H   0  0  0  0  0  0  0  0  0  0  0  0
    4.1996   -0.7751    0.0000 H   0  0  0  0  0  0  0  0  0  0  0  0
    1.6900   -1.2131    0.0000 H   0  0  0  0  0  0  0  0  0  0  0  0
    1.4631   -2.0600    0.0000 H   0  0  0  0  0  0  0  0  0  0  0  0
    2.3100   -2.2869    0.0000 H   0  0  0  0  0  0  0  0  0  0  0  0
  1  2  1  0  0  0  0
  1  5  1  0  0  0  0
  1  8  1  0  0  0  0
  1  9  1  0  0  0  0
  2  6  1  0  0  0  0
  3 29  1  0  0  0  0
  3 30  1  0  0  0  0
  4 29  2  0  0  0  0
  5 11  1  0  0  0  0
  5 12  1  0  0  0  0
  5 13  1  0  0  0  0
  6  7  1  0  0  0  0
  6 10  1  0  0  0  0
  6 31  1  0  0  0  0
  7 14  1  0  0  0  0
  7 32  1  0  0  0  0
  7 33  1  0  0  0  0
  8 34  1  0  0  0  0
  8 35  1  0  0  0  0
  8 36  1  0  0  0  0
  9 37  1  0  0  0  0
  9 38  1  0  0  0  0
  9 39  1  0  0  0  0
 10 15  1  0  0  0  0
 10 40  1  0  0  0  0
 10 41  1  0  0  0  0
 11 42  1  0  0  0  0
 11 43  1  0  0  0  0
 11 44  1  0  0  0  0
 12 45  1  0  0  0  0
 12 46  1  0  0  0  0
 12 47  1  0  0  0  0
 13 48  1  0  0  0  0
 13 49  1  0  0  0  0
 13 50  1  0  0  0  0
 14 16  1  0  0  0  0
 14 51  1  0  0  0  0
 14 52  1  0  0  0  0
 15 18  1  0  0  0  0
 15 53  1  0  0  0  0
 15 54  1  0  0  0  0
 16 17  1  0  0  0  0
 16 55  1  0  0  0  0
 16 56  1  0  0  0  0
 17 19  1  0  0  0  0
 17 57  1  0  0  0  0
 17 58  1  0  0  0  0
 18 21  1  0  0  0  0
 18 59  1  0  0  0  0
 18 60  1  0  0  0  0
 19 20  1  0  0  0  0
 19 61  1  0  0  0  0
 19 62  1  0  0  0  0
 20 22  1  0  0  0  0
 20 63  1  0  0  0  0
 20 64  1  0  0  0  0
 21 25  1  0  0  0  0
 21 67  1  0  0  0  0
 21 68  1  0  0  0  0
 22 23  1  0  0  0  0
 22 65  1  0  0  0  0
 22 66  1  0  0  0  0
 23 24  1  0  0  0  0
 23 69  1  0  0  0  0
 23 70  1  0  0  0  0
 24 26  1  0  0  0  0
 24 71  1  0  0  0  0
 24 72  1  0  0  0  0
 25 73  1  0  0  0  0
 25 74  1  0  0  0  0
 25 75  1  0  0  0  0
 26 27  1  0  0  0  0
 26 76  1  0  0  0  0
 26 77  1  0  0  0  0
 27 28  1  0  0  0  0
 27 78  1  0  0  0  0
 27 79  1  0  0  0  0
 28 29  1  0  0  0  0
 28 80  1  0  0  0  0
 28 81  1  0  0  0  0
 30 82  1  0  0  0  0
 30 83  1  0  0  0  0
 30 84  1  0  0  0  0
M  END
> <PUBCHEM_COMPOUND_CID>
526827
> <PUBCHEM_COMPOUND_CANONICALIZED>
1
> <PUBCHEM_CACTVS_COMPLEXITY>
415
> <PUBCHEM_CACTVS_HBOND_ACCEPTOR>
3
> <PUBCHEM_CACTVS_HBOND_DONOR>
0
> <PUBCHEM_CACTVS_ROTATABLE_BOND>
21
> <PUBCHEM_CACTVS_SUBSKEYS>
AAADcfB4MAgAAAAAAAAAAAAAAAAAAAAAAAAAAAAAAAAAAAAAAAAAGhAAAEAADBSgoAJCCAAABAEIAACQCAAAAAAAAAAAAAEAAAAAABIAAAAAAAAEAAAAAAGIyKCAAAAAAAAAAAAAAAAAAAAAAAAAAAAAAA==
> <PUBCHEM_IUPAC_OPENEYE_NAME>
methyl 14-[tert-butyl(dimethyl)silyl]oxynonadecanoate
> <PUBCHEM_IUPAC_CAS_NAME>
14-[tert-butyl(dimethyl)silyl]oxynonadecanoic acid methyl ester
> <PUBCHEM_IUPAC_NAME_MARKUP>
methyl 14-[<I>tert</I>-butyl(dimethyl)silyl]oxynonadecanoate
> <PUBCHEM_IUPAC_NAME>
methyl 14-[tert-butyl(dimethyl)silyl]oxynonadecanoate
> <PUBCHEM_IUPAC_SYSTEMATIC_NAME>
methyl 14-[tert-butyl(dimethyl)silyl]oxynonadecanoate
> <PUBCHEM_IUPAC_TRADITIONAL_NAME>
14-[tert-butyl(dimethyl)silyl]oxynonadecanoic acid methyl ester
> <PUBCHEM_IUPAC_INCHI>
InChI=1S/C26H54O3Si/c1-8-9-18-21-24(29-30(6,7)26(2,3)4)22-19-16-14-12-10-11-13-15-17-20-23-25(27)28-5/h24H,8-23H2,1-7H3
> <PUBCHEM_IUPAC_INCHIKEY>
WLWRSDRJMLJSLZ-UHFFFAOYSA-N
> <PUBCHEM_EXACT_MASS>
442.38422211
> <PUBCHEM_MOLECULAR_FORMULA>
C26H54O3Si
> <PUBCHEM_MOLECULAR_WEIGHT>
442.8
> <PUBCHEM_OPENEYE_CAN_SMILES>
CCCCCC(CCCCCCCCCCCCC(=O)OC)O[Si](C)(C)C(C)(C)C
> <PUBCHEM_OPENEYE_ISO_SMILES>
CCCCCC(CCCCCCCCCCCCC(=O)OC)O[Si](C)(C)C(C)(C)C
> <PUBCHEM_CACTVS_TPSA>
35.5
> <PUBCHEM_MONOISOTOPIC_WEIGHT>
442.38422211
> <PUBCHEM_TOTAL_CHARGE>
0
> <PUBCHEM_HEAVY_ATOM_COUNT>
30
> <PUBCHEM_ATOM_DEF_STEREO_COUNT>
0
> <PUBCHEM_ATOM_UDEF_STEREO_COUNT>
1
> <PUBCHEM_BOND_DEF_STEREO_COUNT>
0
> <PUBCHEM_BOND_UDEF_STEREO_COUNT>
0
> <PUBCHEM_ISOTOPIC_ATOM_COUNT>
0
> <PUBCHEM_COMPONENT_COUNT>
1
> <PUBCHEM_CACTVS_TAUTO_COUNT>
-1
> <PUBCHEM_COORDINATE_TYPE>
1
5
255
> <PUBCHEM_BONDANNOTATIONS>
6  10  3
$$$$
