526837
  -OEChem-10302200292D
 84 83  0     1  0  0  0  0  0999 V2000
   14.9904   -2.0000    0.0000 Si  0  0  0  0  0  0  0  0  0  0  0  0
   14.1244   -2.5000    0.0000 O   0  0  0  0  0  0  0  0  0  0  0  0
    2.8660   -2.0000    0.0000 O   0  0  0  0  0  0  0  0  0  0  0  0
    3.7320   -3.5000    0.0000 O   0  0  0  0  0  0  0  0  0  0  0  0
   15.8564   -1.5000    0.0000 C   0  0  0  0  0  0  0  0  0  0  0  0
   13.2583   -2.0000    0.0000 C   0  0  3  0  0  0  0  0  0  0  0  0
   12.3923   -2.5000    0.0000 C   0  0  0  0  0  0  0  0  0  0  0  0
   13.2583   -1.0000    0.0000 C   0  0  0  0  0  0  0  0  0  0  0  0
   14.4904   -1.1340    0.0000 C   0  0  0  0  0  0  0  0  0  0  0  0
   15.4904   -2.8660    0.0000 C   0  0  0  0  0  0  0  0  0  0  0  0
   16.7224   -1.0000    0.0000 C   0  0  0  0  0  0  0  0  0  0  0  0
   15.3564   -0.6340    0.0000 C   0  0  0  0  0  0  0  0  0  0  0  0
   16.3564   -2.3660    0.0000 C   0  0  0  0  0  0  0  0  0  0  0  0
   11.5263   -2.0000    0.0000 C   0  0  0  0  0  0  0  0  0  0  0  0
   12.3923   -0.5000    0.0000 C   0  0  0  0  0  0  0  0  0  0  0  0
   10.6603   -2.5000    0.0000 C   0  0  0  0  0  0  0  0  0  0  0  0
   12.3923    0.5000    0.0000 C   0  0  0  0  0  0  0  0  0  0  0  0
    9.7942   -2.0000    0.0000 C   0  0  0  0  0  0  0  0  0  0  0  0
   11.5263    1.0000    0.0000 C   0  0  0  0  0  0  0  0  0  0  0  0
    8.9282   -2.5000    0.0000 C   0  0  0  0  0  0  0  0  0  0  0  0
    8.0622   -2.0000    0.0000 C   0  0  0  0  0  0  0  0  0  0  0  0
   11.5263    2.0000    0.0000 C   0  0  0  0  0  0  0  0  0  0  0  0
    7.1962   -2.5000    0.0000 C   0  0  0  0  0  0  0  0  0  0  0  0
    6.3301   -2.0000    0.0000 C   0  0  0  0  0  0  0  0  0  0  0  0
   10.6603    2.5000    0.0000 C   0  0  0  0  0  0  0  0  0  0  0  0
    5.4641   -2.5000    0.0000 C   0  0  0  0  0  0  0  0  0  0  0  0
   10.6603    3.5000    0.0000 C   0  0  0  0  0  0  0  0  0  0  0  0
    4.5981   -2.0000    0.0000 C   0  0  0  0  0  0  0  0  0  0  0  0
    3.7320   -2.5000    0.0000 C   0  0  0  0  0  0  0  0  0  0  0  0
    2.0000   -2.5000    0.0000 C   0  0  0  0  0  0  0  0  0  0  0  0
   13.7953   -1.6900    0.0000 H   0  0  0  0  0  0  0  0  0  0  0  0
   11.9938   -2.9750    0.0000 H   0  0  0  0  0  0  0  0  0  0  0  0
   12.7908   -2.9750    0.0000 H   0  0  0  0  0  0  0  0  0  0  0  0
   13.8689   -1.1077    0.0000 H   0  0  0  0  0  0  0  0  0  0  0  0
   13.4704   -0.4174    0.0000 H   0  0  0  0  0  0  0  0  0  0  0  0
   15.0273   -0.8240    0.0000 H   0  0  0  0  0  0  0  0  0  0  0  0
   14.1804   -0.5970    0.0000 H   0  0  0  0  0  0  0  0  0  0  0  0
   13.9534   -1.4440    0.0000 H   0  0  0  0  0  0  0  0  0  0  0  0
   14.9534   -3.1760    0.0000 H   0  0  0  0  0  0  0  0  0  0  0  0
   15.8004   -3.4030    0.0000 H   0  0  0  0  0  0  0  0  0  0  0  0
   16.0273   -2.5560    0.0000 H   0  0  0  0  0  0  0  0  0  0  0  0
   17.0324   -1.5369    0.0000 H   0  0  0  0  0  0  0  0  0  0  0  0
   17.2594   -0.6900    0.0000 H   0  0  0  0  0  0  0  0  0  0  0  0
   16.4124   -0.4631    0.0000 H   0  0  0  0  0  0  0  0  0  0  0  0
   15.8933   -0.3240    0.0000 H   0  0  0  0  0  0  0  0  0  0  0  0
   15.0464   -0.0970    0.0000 H   0  0  0  0  0  0  0  0  0  0  0  0
   14.8195   -0.9440    0.0000 H   0  0  0  0  0  0  0  0  0  0  0  0
   15.8195   -2.6760    0.0000 H   0  0  0  0  0  0  0  0  0  0  0  0
   16.6664   -2.9030    0.0000 H   0  0  0  0  0  0  0  0  0  0  0  0
   16.8933   -2.0560    0.0000 H   0  0  0  0  0  0  0  0  0  0  0  0
   11.9248   -1.5250    0.0000 H   0  0  0  0  0  0  0  0  0  0  0  0
   11.1278   -1.5250    0.0000 H   0  0  0  0  0  0  0  0  0  0  0  0
   11.7817   -0.3923    0.0000 H   0  0  0  0  0  0  0  0  0  0  0  0
   12.1803   -1.0826    0.0000 H   0  0  0  0  0  0  0  0  0  0  0  0
   10.2617   -2.9750    0.0000 H   0  0  0  0  0  0  0  0  0  0  0  0
   11.0588   -2.9750    0.0000 H   0  0  0  0  0  0  0  0  0  0  0  0
   13.0029    0.3923    0.0000 H   0  0  0  0  0  0  0  0  0  0  0  0
   12.6044    1.0826    0.0000 H   0  0  0  0  0  0  0  0  0  0  0  0
   10.1928   -1.5250    0.0000 H   0  0  0  0  0  0  0  0  0  0  0  0
    9.3957   -1.5250    0.0000 H   0  0  0  0  0  0  0  0  0  0  0  0
   10.9157    1.1077    0.0000 H   0  0  0  0  0  0  0  0  0  0  0  0
   11.3142    0.4174    0.0000 H   0  0  0  0  0  0  0  0  0  0  0  0
    8.5297   -2.9750    0.0000 H   0  0  0  0  0  0  0  0  0  0  0  0
    9.3267   -2.9750    0.0000 H   0  0  0  0  0  0  0  0  0  0  0  0
    8.4607   -1.5250    0.0000 H   0  0  0  0  0  0  0  0  0  0  0  0
    7.6636   -1.5250    0.0000 H   0  0  0  0  0  0  0  0  0  0  0  0
   12.1369    1.8923    0.0000 H   0  0  0  0  0  0  0  0  0  0  0  0
   11.7383    2.5826    0.0000 H   0  0  0  0  0  0  0  0  0  0  0  0
    6.7976   -2.9750    0.0000 H   0  0  0  0  0  0  0  0  0  0  0  0
    7.5947   -2.9750    0.0000 H   0  0  0  0  0  0  0  0  0  0  0  0
    6.7287   -1.5250    0.0000 H   0  0  0  0  0  0  0  0  0  0  0  0
    5.9316   -1.5250    0.0000 H   0  0  0  0  0  0  0  0  0  0  0  0
   10.0497    2.6077    0.0000 H   0  0  0  0  0  0  0  0  0  0  0  0
   10.4482    1.9174    0.0000 H   0  0  0  0  0  0  0  0  0  0  0  0
    5.0656   -2.9750    0.0000 H   0  0  0  0  0  0  0  0  0  0  0  0
    5.8626   -2.9750    0.0000 H   0  0  0  0  0  0  0  0  0  0  0  0
   11.2803    3.5000    0.0000 H   0  0  0  0  0  0  0  0  0  0  0  0
   10.6603    4.1200    0.0000 H   0  0  0  0  0  0  0  0  0  0  0  0
   10.0403    3.5000    0.0000 H   0  0  0  0  0  0  0  0  0  0  0  0
    4.9966   -1.5250    0.0000 H   0  0  0  0  0  0  0  0  0  0  0  0
    4.1996   -1.5250    0.0000 H   0  0  0  0  0  0  0  0  0  0  0  0
    1.6900   -1.9631    0.0000 H   0  0  0  0  0  0  0  0  0  0  0  0
    1.4631   -2.8100    0.0000 H   0  0  0  0  0  0  0  0  0  0  0  0
    2.3100   -3.0369    0.0000 H   0  0  0  0  0  0  0  0  0  0  0  0
  1  2  1  0  0  0  0
  1  5  1  0  0  0  0
  1  9  1  0  0  0  0
  1 10  1  0  0  0  0
  2  6  1  0  0  0  0
  3 29  1  0  0  0  0
  3 30  1  0  0  0  0
  4 29  2  0  0  0  0
  5 11  1  0  0  0  0
  5 12  1  0  0  0  0
  5 13  1  0  0  0  0
  6  7  1  0  0  0  0
  6  8  1  0  0  0  0
  6 31  1  0  0  0  0
  7 14  1  0  0  0  0
  7 32  1  0  0  0  0
  7 33  1  0  0  0  0
  8 15  1  0  0  0  0
  8 34  1  0  0  0  0
  8 35  1  0  0  0  0
  9 36  1  0  0  0  0
  9 37  1  0  0  0  0
  9 38  1  0  0  0  0
 10 39  1  0  0  0  0
 10 40  1  0  0  0  0
 10 41  1  0  0  0  0
 11 42  1  0  0  0  0
 11 43  1  0  0  0  0
 11 44  1  0  0  0  0
 12 45  1  0  0  0  0
 12 46  1  0  0  0  0
 12 47  1  0  0  0  0
 13 48  1  0  0  0  0
 13 49  1  0  0  0  0
 13 50  1  0  0  0  0
 14 16  1  0  0  0  0
 14 51  1  0  0  0  0
 14 52  1  0  0  0  0
 15 17  1  0  0  0  0
 15 53  1  0  0  0  0
 15 54  1  0  0  0  0
 16 18  1  0  0  0  0
 16 55  1  0  0  0  0
 16 56  1  0  0  0  0
 17 19  1  0  0  0  0
 17 57  1  0  0  0  0
 17 58  1  0  0  0  0
 18 20  1  0  0  0  0
 18 59  1  0  0  0  0
 18 60  1  0  0  0  0
 19 22  1  0  0  0  0
 19 61  1  0  0  0  0
 19 62  1  0  0  0  0
 20 21  1  0  0  0  0
 20 63  1  0  0  0  0
 20 64  1  0  0  0  0
 21 23  1  0  0  0  0
 21 65  1  0  0  0  0
 21 66  1  0  0  0  0
 22 25  1  0  0  0  0
 22 67  1  0  0  0  0
 22 68  1  0  0  0  0
 23 24  1  0  0  0  0
 23 69  1  0  0  0  0
 23 70  1  0  0  0  0
 24 26  1  0  0  0  0
 24 71  1  0  0  0  0
 24 72  1  0  0  0  0
 25 27  1  0  0  0  0
 25 73  1  0  0  0  0
 25 74  1  0  0  0  0
 26 28  1  0  0  0  0
 26 75  1  0  0  0  0
 26 76  1  0  0  0  0
 27 77  1  0  0  0  0
 27 78  1  0  0  0  0
 27 79  1  0  0  0  0
 28 29  1  0  0  0  0
 28 80  1  0  0  0  0
 28 81  1  0  0  0  0
 30 82  1  0  0  0  0
 30 83  1  0  0  0  0
 30 84  1  0  0  0  0
M  END
> <PUBCHEM_COMPOUND_CID>
526837
> <PUBCHEM_COMPOUND_CANONICALIZED>
1
> <PUBCHEM_CACTVS_COMPLEXITY>
415
> <PUBCHEM_CACTVS_HBOND_ACCEPTOR>
3
> <PUBCHEM_CACTVS_HBOND_DONOR>
0
> <PUBCHEM_CACTVS_ROTATABLE_BOND>
21
> <PUBCHEM_CACTVS_SUBSKEYS>
AAADcfB4MAgAAAAAAAAAAAAAAAAAAAAAAAAAAAAAAAAAAAAAAAAAGhAAAEAADBSgoAJCCAAABAEIAACQCAAAAAAAAAAAAAEAAAAAABIAAAAAAAAEAAAAAAGIyKCAAAAAAAAAAAAAAAAAAAAAAAAAAAAAAA==
> <PUBCHEM_IUPAC_OPENEYE_NAME>
methyl 12-[tert-butyl(dimethyl)silyl]oxynonadecanoate
> <PUBCHEM_IUPAC_CAS_NAME>
12-[tert-butyl(dimethyl)silyl]oxynonadecanoic acid methyl ester
> <PUBCHEM_IUPAC_NAME_MARKUP>
methyl 12-[<I>tert</I>-butyl(dimethyl)silyl]oxynonadecanoate
> <PUBCHEM_IUPAC_NAME>
methyl 12-[tert-butyl(dimethyl)silyl]oxynonadecanoate
> <PUBCHEM_IUPAC_SYSTEMATIC_NAME>
methyl 12-[tert-butyl(dimethyl)silyl]oxynonadecanoate
> <PUBCHEM_IUPAC_TRADITIONAL_NAME>
12-[tert-butyl(dimethyl)silyl]oxynonadecanoic acid methyl ester
> <PUBCHEM_IUPAC_INCHI>
InChI=1S/C26H54O3Si/c1-8-9-10-15-18-21-24(29-30(6,7)26(2,3)4)22-19-16-13-11-12-14-17-20-23-25(27)28-5/h24H,8-23H2,1-7H3
> <PUBCHEM_IUPAC_INCHIKEY>
NMEJTHOZVULTCP-UHFFFAOYSA-N
> <PUBCHEM_EXACT_MASS>
442.38422211
> <PUBCHEM_MOLECULAR_FORMULA>
C26H54O3Si
> <PUBCHEM_MOLECULAR_WEIGHT>
442.8
> <PUBCHEM_OPENEYE_CAN_SMILES>
CCCCCCCC(CCCCCCCCCCC(=O)OC)O[Si](C)(C)C(C)(C)C
> <PUBCHEM_OPENEYE_ISO_SMILES>
CCCCCCCC(CCCCCCCCCCC(=O)OC)O[Si](C)(C)C(C)(C)C
> <PUBCHEM_CACTVS_TPSA>
35.5
> <PUBCHEM_MONOISOTOPIC_WEIGHT>
442.38422211
> <PUBCHEM_TOTAL_CHARGE>
0
> <PUBCHEM_HEAVY_ATOM_COUNT>
30
> <PUBCHEM_ATOM_DEF_STEREO_COUNT>
0
> <PUBCHEM_ATOM_UDEF_STEREO_COUNT>
1
> <PUBCHEM_BOND_DEF_STEREO_COUNT>
0
> <PUBCHEM_BOND_UDEF_STEREO_COUNT>
0
> <PUBCHEM_ISOTOPIC_ATOM_COUNT>
0
> <PUBCHEM_COMPONENT_COUNT>
1
> <PUBCHEM_CACTVS_TAUTO_COUNT>
-1
> <PUBCHEM_COORDINATE_TYPE>
1
5
255
> <PUBCHEM_BONDANNOTATIONS>
6  8  3
$$$$
