526829
  -OEChem-10302200292D
 81 80  0     1  0  0  0  0  0999 V2000
   15.8564   -1.5670    0.0000 Si  0  0  0  0  0  0  0  0  0  0  0  0
   14.9904   -2.0670    0.0000 O   0  0  0  0  0  0  0  0  0  0  0  0
    2.8660   -2.0670    0.0000 O   0  0  0  0  0  0  0  0  0  0  0  0
    3.7320   -0.5670    0.0000 O   0  0  0  0  0  0  0  0  0  0  0  0
   16.7224   -1.0670    0.0000 C   0  0  0  0  0  0  0  0  0  0  0  0
   14.1244   -1.5670    0.0000 C   0  0  3  0  0  0  0  0  0  0  0  0
   13.2583   -2.0670    0.0000 C   0  0  0  0  0  0  0  0  0  0  0  0
   15.3564   -0.7010    0.0000 C   0  0  0  0  0  0  0  0  0  0  0  0
   16.3564   -2.4330    0.0000 C   0  0  0  0  0  0  0  0  0  0  0  0
   14.1244   -0.5670    0.0000 C   0  0  0  0  0  0  0  0  0  0  0  0
   17.5885   -0.5670    0.0000 C   0  0  0  0  0  0  0  0  0  0  0  0
   16.2224   -0.2010    0.0000 C   0  0  0  0  0  0  0  0  0  0  0  0
   17.2224   -1.9330    0.0000 C   0  0  0  0  0  0  0  0  0  0  0  0
   12.3923   -1.5670    0.0000 C   0  0  0  0  0  0  0  0  0  0  0  0
   13.2583   -0.0670    0.0000 C   0  0  0  0  0  0  0  0  0  0  0  0
   11.5263   -2.0670    0.0000 C   0  0  0  0  0  0  0  0  0  0  0  0
   10.6603   -1.5670    0.0000 C   0  0  0  0  0  0  0  0  0  0  0  0
   13.2583    0.9330    0.0000 C   0  0  0  0  0  0  0  0  0  0  0  0
    9.7942   -2.0670    0.0000 C   0  0  0  0  0  0  0  0  0  0  0  0
    8.9282   -1.5670    0.0000 C   0  0  0  0  0  0  0  0  0  0  0  0
   12.3923    1.4330    0.0000 C   0  0  0  0  0  0  0  0  0  0  0  0
    8.0622   -2.0670    0.0000 C   0  0  0  0  0  0  0  0  0  0  0  0
    7.1962   -1.5670    0.0000 C   0  0  0  0  0  0  0  0  0  0  0  0
    6.3301   -2.0670    0.0000 C   0  0  0  0  0  0  0  0  0  0  0  0
   12.3923    2.4330    0.0000 C   0  0  0  0  0  0  0  0  0  0  0  0
    5.4641   -1.5670    0.0000 C   0  0  0  0  0  0  0  0  0  0  0  0
    4.5981   -2.0670    0.0000 C   0  0  0  0  0  0  0  0  0  0  0  0
    3.7320   -1.5670    0.0000 C   0  0  0  0  0  0  0  0  0  0  0  0
    2.0000   -1.5670    0.0000 C   0  0  0  0  0  0  0  0  0  0  0  0
   14.1244   -2.1870    0.0000 H   0  0  0  0  0  0  0  0  0  0  0  0
   12.8598   -2.5419    0.0000 H   0  0  0  0  0  0  0  0  0  0  0  0
   13.6569   -2.5419    0.0000 H   0  0  0  0  0  0  0  0  0  0  0  0
   15.8933   -0.3910    0.0000 H   0  0  0  0  0  0  0  0  0  0  0  0
   15.0464   -0.1640    0.0000 H   0  0  0  0  0  0  0  0  0  0  0  0
   14.8195   -1.0110    0.0000 H   0  0  0  0  0  0  0  0  0  0  0  0
   15.8195   -2.7430    0.0000 H   0  0  0  0  0  0  0  0  0  0  0  0
   16.6664   -2.9700    0.0000 H   0  0  0  0  0  0  0  0  0  0  0  0
   16.8933   -2.1230    0.0000 H   0  0  0  0  0  0  0  0  0  0  0  0
   14.7349   -0.6746    0.0000 H   0  0  0  0  0  0  0  0  0  0  0  0
   14.3364    0.0156    0.0000 H   0  0  0  0  0  0  0  0  0  0  0  0
   17.8985   -1.1039    0.0000 H   0  0  0  0  0  0  0  0  0  0  0  0
   18.1254   -0.2570    0.0000 H   0  0  0  0  0  0  0  0  0  0  0  0
   17.2785   -0.0301    0.0000 H   0  0  0  0  0  0  0  0  0  0  0  0
   16.7594    0.1090    0.0000 H   0  0  0  0  0  0  0  0  0  0  0  0
   15.9124    0.3360    0.0000 H   0  0  0  0  0  0  0  0  0  0  0  0
   15.6855   -0.5110    0.0000 H   0  0  0  0  0  0  0  0  0  0  0  0
   16.6855   -2.2430    0.0000 H   0  0  0  0  0  0  0  0  0  0  0  0
   17.5324   -2.4700    0.0000 H   0  0  0  0  0  0  0  0  0  0  0  0
   17.7594   -1.6230    0.0000 H   0  0  0  0  0  0  0  0  0  0  0  0
   12.7908   -1.0920    0.0000 H   0  0  0  0  0  0  0  0  0  0  0  0
   11.9938   -1.0920    0.0000 H   0  0  0  0  0  0  0  0  0  0  0  0
   12.6477    0.0407    0.0000 H   0  0  0  0  0  0  0  0  0  0  0  0
   13.0463   -0.6496    0.0000 H   0  0  0  0  0  0  0  0  0  0  0  0
   11.1278   -2.5419    0.0000 H   0  0  0  0  0  0  0  0  0  0  0  0
   11.9248   -2.5419    0.0000 H   0  0  0  0  0  0  0  0  0  0  0  0
   11.0588   -1.0920    0.0000 H   0  0  0  0  0  0  0  0  0  0  0  0
   10.2617   -1.0920    0.0000 H   0  0  0  0  0  0  0  0  0  0  0  0
   13.8689    0.8254    0.0000 H   0  0  0  0  0  0  0  0  0  0  0  0
   13.4704    1.5156    0.0000 H   0  0  0  0  0  0  0  0  0  0  0  0
    9.3957   -2.5419    0.0000 H   0  0  0  0  0  0  0  0  0  0  0  0
   10.1928   -2.5419    0.0000 H   0  0  0  0  0  0  0  0  0  0  0  0
    9.3267   -1.0920    0.0000 H   0  0  0  0  0  0  0  0  0  0  0  0
    8.5297   -1.0920    0.0000 H   0  0  0  0  0  0  0  0  0  0  0  0
   11.7817    1.5407    0.0000 H   0  0  0  0  0  0  0  0  0  0  0  0
   12.1803    0.8504    0.0000 H   0  0  0  0  0  0  0  0  0  0  0  0
    7.6636   -2.5419    0.0000 H   0  0  0  0  0  0  0  0  0  0  0  0
    8.4607   -2.5419    0.0000 H   0  0  0  0  0  0  0  0  0  0  0  0
    7.5947   -1.0920    0.0000 H   0  0  0  0  0  0  0  0  0  0  0  0
    6.7976   -1.0920    0.0000 H   0  0  0  0  0  0  0  0  0  0  0  0
    5.9316   -2.5419    0.0000 H   0  0  0  0  0  0  0  0  0  0  0  0
    6.7287   -2.5419    0.0000 H   0  0  0  0  0  0  0  0  0  0  0  0
   13.0123    2.4330    0.0000 H   0  0  0  0  0  0  0  0  0  0  0  0
   12.3923    3.0530    0.0000 H   0  0  0  0  0  0  0  0  0  0  0  0
   11.7723    2.4330    0.0000 H   0  0  0  0  0  0  0  0  0  0  0  0
    5.8626   -1.0920    0.0000 H   0  0  0  0  0  0  0  0  0  0  0  0
    5.0656   -1.0920    0.0000 H   0  0  0  0  0  0  0  0  0  0  0  0
    4.1996   -2.5419    0.0000 H   0  0  0  0  0  0  0  0  0  0  0  0
    4.9966   -2.5419    0.0000 H   0  0  0  0  0  0  0  0  0  0  0  0
    2.3100   -1.0300    0.0000 H   0  0  0  0  0  0  0  0  0  0  0  0
    1.4631   -1.2570    0.0000 H   0  0  0  0  0  0  0  0  0  0  0  0
    1.6900   -2.1039    0.0000 H   0  0  0  0  0  0  0  0  0  0  0  0
  1  2  1  0  0  0  0
  1  5  1  0  0  0  0
  1  8  1  0  0  0  0
  1  9  1  0  0  0  0
  2  6  1  0  0  0  0
  3 28  1  0  0  0  0
  3 29  1  0  0  0  0
  4 28  2  0  0  0  0
  5 11  1  0  0  0  0
  5 12  1  0  0  0  0
  5 13  1  0  0  0  0
  6  7  1  0  0  0  0
  6 10  1  0  0  0  0
  6 30  1  0  0  0  0
  7 14  1  0  0  0  0
  7 31  1  0  0  0  0
  7 32  1  0  0  0  0
  8 33  1  0  0  0  0
  8 34  1  0  0  0  0
  8 35  1  0  0  0  0
  9 36  1  0  0  0  0
  9 37  1  0  0  0  0
  9 38  1  0  0  0  0
 10 15  1  0  0  0  0
 10 39  1  0  0  0  0
 10 40  1  0  0  0  0
 11 41  1  0  0  0  0
 11 42  1  0  0  0  0
 11 43  1  0  0  0  0
 12 44  1  0  0  0  0
 12 45  1  0  0  0  0
 12 46  1  0  0  0  0
 13 47  1  0  0  0  0
 13 48  1  0  0  0  0
 13 49  1  0  0  0  0
 14 16  1  0  0  0  0
 14 50  1  0  0  0  0
 14 51  1  0  0  0  0
 15 18  1  0  0  0  0
 15 52  1  0  0  0  0
 15 53  1  0  0  0  0
 16 17  1  0  0  0  0
 16 54  1  0  0  0  0
 16 55  1  0  0  0  0
 17 19  1  0  0  0  0
 17 56  1  0  0  0  0
 17 57  1  0  0  0  0
 18 21  1  0  0  0  0
 18 58  1  0  0  0  0
 18 59  1  0  0  0  0
 19 20  1  0  0  0  0
 19 60  1  0  0  0  0
 19 61  1  0  0  0  0
 20 22  1  0  0  0  0
 20 62  1  0  0  0  0
 20 63  1  0  0  0  0
 21 25  1  0  0  0  0
 21 64  1  0  0  0  0
 21 65  1  0  0  0  0
 22 23  1  0  0  0  0
 22 66  1  0  0  0  0
 22 67  1  0  0  0  0
 23 24  1  0  0  0  0
 23 68  1  0  0  0  0
 23 69  1  0  0  0  0
 24 26  1  0  0  0  0
 24 70  1  0  0  0  0
 24 71  1  0  0  0  0
 25 72  1  0  0  0  0
 25 73  1  0  0  0  0
 25 74  1  0  0  0  0
 26 27  1  0  0  0  0
 26 75  1  0  0  0  0
 26 76  1  0  0  0  0
 27 28  1  0  0  0  0
 27 77  1  0  0  0  0
 27 78  1  0  0  0  0
 29 79  1  0  0  0  0
 29 80  1  0  0  0  0
 29 81  1  0  0  0  0
M  END
> <PUBCHEM_COMPOUND_CID>
526829
> <PUBCHEM_COMPOUND_CANONICALIZED>
1
> <PUBCHEM_CACTVS_COMPLEXITY>
401
> <PUBCHEM_CACTVS_HBOND_ACCEPTOR>
3
> <PUBCHEM_CACTVS_HBOND_DONOR>
0
> <PUBCHEM_CACTVS_ROTATABLE_BOND>
20
> <PUBCHEM_CACTVS_SUBSKEYS>
AAADcfB4MAgAAAAAAAAAAAAAAAAAAAAAAAAAAAAAAAAAAAAAAAAAGhAAAEAADBSgoAJCCAAABAEIAACQCAAAAAAAAAAAAAEAAAAAABIAAAAAAAAEAAAAAAGIyKCAAAAAAAAAAAAAAAAAAAAAAAAAAAAAAA==
> <PUBCHEM_IUPAC_OPENEYE_NAME>
methyl 13-[tert-butyl(dimethyl)silyl]oxyoctadecanoate
> <PUBCHEM_IUPAC_CAS_NAME>
13-[tert-butyl(dimethyl)silyl]oxyoctadecanoic acid methyl ester
> <PUBCHEM_IUPAC_NAME_MARKUP>
methyl 13-[<I>tert</I>-butyl(dimethyl)silyl]oxyoctadecanoate
> <PUBCHEM_IUPAC_NAME>
methyl 13-[tert-butyl(dimethyl)silyl]oxyoctadecanoate
> <PUBCHEM_IUPAC_SYSTEMATIC_NAME>
methyl 13-[tert-butyl(dimethyl)silyl]oxyoctadecanoate
> <PUBCHEM_IUPAC_TRADITIONAL_NAME>
13-[tert-butyl(dimethyl)silyl]oxystearic acid methyl ester
> <PUBCHEM_IUPAC_INCHI>
InChI=1S/C25H52O3Si/c1-8-9-17-20-23(28-29(6,7)25(2,3)4)21-18-15-13-11-10-12-14-16-19-22-24(26)27-5/h23H,8-22H2,1-7H3
> <PUBCHEM_IUPAC_INCHIKEY>
PDMQLEBNJNVTJP-UHFFFAOYSA-N
> <PUBCHEM_EXACT_MASS>
428.36857205
> <PUBCHEM_MOLECULAR_FORMULA>
C25H52O3Si
> <PUBCHEM_MOLECULAR_WEIGHT>
428.8
> <PUBCHEM_OPENEYE_CAN_SMILES>
CCCCCC(CCCCCCCCCCCC(=O)OC)O[Si](C)(C)C(C)(C)C
> <PUBCHEM_OPENEYE_ISO_SMILES>
CCCCCC(CCCCCCCCCCCC(=O)OC)O[Si](C)(C)C(C)(C)C
> <PUBCHEM_CACTVS_TPSA>
35.5
> <PUBCHEM_MONOISOTOPIC_WEIGHT>
428.36857205
> <PUBCHEM_TOTAL_CHARGE>
0
> <PUBCHEM_HEAVY_ATOM_COUNT>
29
> <PUBCHEM_ATOM_DEF_STEREO_COUNT>
0
> <PUBCHEM_ATOM_UDEF_STEREO_COUNT>
1
> <PUBCHEM_BOND_DEF_STEREO_COUNT>
0
> <PUBCHEM_BOND_UDEF_STEREO_COUNT>
0
> <PUBCHEM_ISOTOPIC_ATOM_COUNT>
0
> <PUBCHEM_COMPONENT_COUNT>
1
> <PUBCHEM_CACTVS_TAUTO_COUNT>
-1
> <PUBCHEM_COORDINATE_TYPE>
1
5
255
> <PUBCHEM_BONDANNOTATIONS>
6  10  3
$$$$
