526840
  -OEChem-10302200292D
 87 86  0     1  0  0  0  0  0999 V2000
   14.9904   -2.2500    0.0000 Si  0  0  0  0  0  0  0  0  0  0  0  0
   14.1244   -2.7500    0.0000 O   0  0  0  0  0  0  0  0  0  0  0  0
    2.8660   -2.2500    0.0000 O   0  0  0  0  0  0  0  0  0  0  0  0
    3.7320   -3.7500    0.0000 O   0  0  0  0  0  0  0  0  0  0  0  0
   15.8564   -1.7500    0.0000 C   0  0  0  0  0  0  0  0  0  0  0  0
   13.2583   -2.2500    0.0000 C   0  0  3  0  0  0  0  0  0  0  0  0
   12.3923   -2.7500    0.0000 C   0  0  0  0  0  0  0  0  0  0  0  0
   13.2583   -1.2500    0.0000 C   0  0  0  0  0  0  0  0  0  0  0  0
   14.4904   -1.3840    0.0000 C   0  0  0  0  0  0  0  0  0  0  0  0
   15.4904   -3.1160    0.0000 C   0  0  0  0  0  0  0  0  0  0  0  0
   16.7224   -1.2500    0.0000 C   0  0  0  0  0  0  0  0  0  0  0  0
   15.3564   -0.8840    0.0000 C   0  0  0  0  0  0  0  0  0  0  0  0
   16.3564   -2.6160    0.0000 C   0  0  0  0  0  0  0  0  0  0  0  0
   11.5263   -2.2500    0.0000 C   0  0  0  0  0  0  0  0  0  0  0  0
   12.3923   -0.7500    0.0000 C   0  0  0  0  0  0  0  0  0  0  0  0
   10.6603   -2.7500    0.0000 C   0  0  0  0  0  0  0  0  0  0  0  0
   12.3923    0.2500    0.0000 C   0  0  0  0  0  0  0  0  0  0  0  0
    9.7942   -2.2500    0.0000 C   0  0  0  0  0  0  0  0  0  0  0  0
   11.5263    0.7500    0.0000 C   0  0  0  0  0  0  0  0  0  0  0  0
    8.9282   -2.7500    0.0000 C   0  0  0  0  0  0  0  0  0  0  0  0
   11.5263    1.7500    0.0000 C   0  0  0  0  0  0  0  0  0  0  0  0
    8.0622   -2.2500    0.0000 C   0  0  0  0  0  0  0  0  0  0  0  0
    7.1962   -2.7500    0.0000 C   0  0  0  0  0  0  0  0  0  0  0  0
   10.6603    2.2500    0.0000 C   0  0  0  0  0  0  0  0  0  0  0  0
    6.3301   -2.2500    0.0000 C   0  0  0  0  0  0  0  0  0  0  0  0
   10.6603    3.2500    0.0000 C   0  0  0  0  0  0  0  0  0  0  0  0
    5.4641   -2.7500    0.0000 C   0  0  0  0  0  0  0  0  0  0  0  0
    9.7942    3.7500    0.0000 C   0  0  0  0  0  0  0  0  0  0  0  0
    4.5981   -2.2500    0.0000 C   0  0  0  0  0  0  0  0  0  0  0  0
    3.7320   -2.7500    0.0000 C   0  0  0  0  0  0  0  0  0  0  0  0
    2.0000   -2.7500    0.0000 C   0  0  0  0  0  0  0  0  0  0  0  0
   13.7953   -1.9400    0.0000 H   0  0  0  0  0  0  0  0  0  0  0  0
   11.9938   -3.2250    0.0000 H   0  0  0  0  0  0  0  0  0  0  0  0
   12.7908   -3.2250    0.0000 H   0  0  0  0  0  0  0  0  0  0  0  0
   13.8689   -1.3577    0.0000 H   0  0  0  0  0  0  0  0  0  0  0  0
   13.4704   -0.6674    0.0000 H   0  0  0  0  0  0  0  0  0  0  0  0
   15.0273   -1.0740    0.0000 H   0  0  0  0  0  0  0  0  0  0  0  0
   14.1804   -0.8470    0.0000 H   0  0  0  0  0  0  0  0  0  0  0  0
   13.9534   -1.6940    0.0000 H   0  0  0  0  0  0  0  0  0  0  0  0
   14.9534   -3.4260    0.0000 H   0  0  0  0  0  0  0  0  0  0  0  0
   15.8004   -3.6530    0.0000 H   0  0  0  0  0  0  0  0  0  0  0  0
   16.0273   -2.8060    0.0000 H   0  0  0  0  0  0  0  0  0  0  0  0
   17.0324   -1.7869    0.0000 H   0  0  0  0  0  0  0  0  0  0  0  0
   17.2594   -0.9400    0.0000 H   0  0  0  0  0  0  0  0  0  0  0  0
   16.4124   -0.7131    0.0000 H   0  0  0  0  0  0  0  0  0  0  0  0
   15.8933   -0.5740    0.0000 H   0  0  0  0  0  0  0  0  0  0  0  0
   15.0464   -0.3470    0.0000 H   0  0  0  0  0  0  0  0  0  0  0  0
   14.8195   -1.1940    0.0000 H   0  0  0  0  0  0  0  0  0  0  0  0
   15.8195   -2.9260    0.0000 H   0  0  0  0  0  0  0  0  0  0  0  0
   16.6664   -3.1530    0.0000 H   0  0  0  0  0  0  0  0  0  0  0  0
   16.8933   -2.3060    0.0000 H   0  0  0  0  0  0  0  0  0  0  0  0
   11.9248   -1.7750    0.0000 H   0  0  0  0  0  0  0  0  0  0  0  0
   11.1278   -1.7750    0.0000 H   0  0  0  0  0  0  0  0  0  0  0  0
   11.7817   -0.6423    0.0000 H   0  0  0  0  0  0  0  0  0  0  0  0
   12.1803   -1.3326    0.0000 H   0  0  0  0  0  0  0  0  0  0  0  0
   10.2617   -3.2250    0.0000 H   0  0  0  0  0  0  0  0  0  0  0  0
   11.0588   -3.2250    0.0000 H   0  0  0  0  0  0  0  0  0  0  0  0
   13.0029    0.1423    0.0000 H   0  0  0  0  0  0  0  0  0  0  0  0
   12.6044    0.8326    0.0000 H   0  0  0  0  0  0  0  0  0  0  0  0
   10.1928   -1.7750    0.0000 H   0  0  0  0  0  0  0  0  0  0  0  0
    9.3957   -1.7750    0.0000 H   0  0  0  0  0  0  0  0  0  0  0  0
   10.9157    0.8577    0.0000 H   0  0  0  0  0  0  0  0  0  0  0  0
   11.3142    0.1674    0.0000 H   0  0  0  0  0  0  0  0  0  0  0  0
    8.5297   -3.2250    0.0000 H   0  0  0  0  0  0  0  0  0  0  0  0
    9.3267   -3.2250    0.0000 H   0  0  0  0  0  0  0  0  0  0  0  0
   12.1369    1.6423    0.0000 H   0  0  0  0  0  0  0  0  0  0  0  0
   11.7383    2.3326    0.0000 H   0  0  0  0  0  0  0  0  0  0  0  0
    8.4607   -1.7750    0.0000 H   0  0  0  0  0  0  0  0  0  0  0  0
    7.6636   -1.7750    0.0000 H   0  0  0  0  0  0  0  0  0  0  0  0
    6.7976   -3.2250    0.0000 H   0  0  0  0  0  0  0  0  0  0  0  0
    7.5947   -3.2250    0.0000 H   0  0  0  0  0  0  0  0  0  0  0  0
   10.0497    2.3577    0.0000 H   0  0  0  0  0  0  0  0  0  0  0  0
   10.4482    1.6674    0.0000 H   0  0  0  0  0  0  0  0  0  0  0  0
    6.7287   -1.7750    0.0000 H   0  0  0  0  0  0  0  0  0  0  0  0
    5.9316   -1.7750    0.0000 H   0  0  0  0  0  0  0  0  0  0  0  0
   11.2708    3.1423    0.0000 H   0  0  0  0  0  0  0  0  0  0  0  0
   10.8723    3.8326    0.0000 H   0  0  0  0  0  0  0  0  0  0  0  0
    5.0656   -3.2250    0.0000 H   0  0  0  0  0  0  0  0  0  0  0  0
    5.8626   -3.2250    0.0000 H   0  0  0  0  0  0  0  0  0  0  0  0
    4.9966   -1.7750    0.0000 H   0  0  0  0  0  0  0  0  0  0  0  0
    4.1996   -1.7750    0.0000 H   0  0  0  0  0  0  0  0  0  0  0  0
   10.1042    4.2869    0.0000 H   0  0  0  0  0  0  0  0  0  0  0  0
    9.2573    4.0600    0.0000 H   0  0  0  0  0  0  0  0  0  0  0  0
    9.4842    3.2131    0.0000 H   0  0  0  0  0  0  0  0  0  0  0  0
    1.6900   -2.2131    0.0000 H   0  0  0  0  0  0  0  0  0  0  0  0
    1.4631   -3.0600    0.0000 H   0  0  0  0  0  0  0  0  0  0  0  0
    2.3100   -3.2869    0.0000 H   0  0  0  0  0  0  0  0  0  0  0  0
  1  2  1  0  0  0  0
  1  5  1  0  0  0  0
  1  9  1  0  0  0  0
  1 10  1  0  0  0  0
  2  6  1  0  0  0  0
  3 30  1  0  0  0  0
  3 31  1  0  0  0  0
  4 30  2  0  0  0  0
  5 11  1  0  0  0  0
  5 12  1  0  0  0  0
  5 13  1  0  0  0  0
  6  7  1  0  0  0  0
  6  8  1  0  0  0  0
  6 32  1  0  0  0  0
  7 14  1  0  0  0  0
  7 33  1  0  0  0  0
  7 34  1  0  0  0  0
  8 15  1  0  0  0  0
  8 35  1  0  0  0  0
  8 36  1  0  0  0  0
  9 37  1  0  0  0  0
  9 38  1  0  0  0  0
  9 39  1  0  0  0  0
 10 40  1  0  0  0  0
 10 41  1  0  0  0  0
 10 42  1  0  0  0  0
 11 43  1  0  0  0  0
 11 44  1  0  0  0  0
 11 45  1  0  0  0  0
 12 46  1  0  0  0  0
 12 47  1  0  0  0  0
 12 48  1  0  0  0  0
 13 49  1  0  0  0  0
 13 50  1  0  0  0  0
 13 51  1  0  0  0  0
 14 16  1  0  0  0  0
 14 52  1  0  0  0  0
 14 53  1  0  0  0  0
 15 17  1  0  0  0  0
 15 54  1  0  0  0  0
 15 55  1  0  0  0  0
 16 18  1  0  0  0  0
 16 56  1  0  0  0  0
 16 57  1  0  0  0  0
 17 19  1  0  0  0  0
 17 58  1  0  0  0  0
 17 59  1  0  0  0  0
 18 20  1  0  0  0  0
 18 60  1  0  0  0  0
 18 61  1  0  0  0  0
 19 21  1  0  0  0  0
 19 62  1  0  0  0  0
 19 63  1  0  0  0  0
 20 22  1  0  0  0  0
 20 64  1  0  0  0  0
 20 65  1  0  0  0  0
 21 24  1  0  0  0  0
 21 66  1  0  0  0  0
 21 67  1  0  0  0  0
 22 23  1  0  0  0  0
 22 68  1  0  0  0  0
 22 69  1  0  0  0  0
 23 25  1  0  0  0  0
 23 70  1  0  0  0  0
 23 71  1  0  0  0  0
 24 26  1  0  0  0  0
 24 72  1  0  0  0  0
 24 73  1  0  0  0  0
 25 27  1  0  0  0  0
 25 74  1  0  0  0  0
 25 75  1  0  0  0  0
 26 28  1  0  0  0  0
 26 76  1  0  0  0  0
 26 77  1  0  0  0  0
 27 29  1  0  0  0  0
 27 78  1  0  0  0  0
 27 79  1  0  0  0  0
 28 82  1  0  0  0  0
 28 83  1  0  0  0  0
 28 84  1  0  0  0  0
 29 30  1  0  0  0  0
 29 80  1  0  0  0  0
 29 81  1  0  0  0  0
 31 85  1  0  0  0  0
 31 86  1  0  0  0  0
 31 87  1  0  0  0  0
M  END
> <PUBCHEM_COMPOUND_CID>
526840
> <PUBCHEM_COMPOUND_CANONICALIZED>
1
> <PUBCHEM_CACTVS_COMPLEXITY>
429
> <PUBCHEM_CACTVS_HBOND_ACCEPTOR>
3
> <PUBCHEM_CACTVS_HBOND_DONOR>
0
> <PUBCHEM_CACTVS_ROTATABLE_BOND>
22
> <PUBCHEM_CACTVS_SUBSKEYS>
AAADcfB4MAgAAAAAAAAAAAAAAAAAAAAAAAAAAAAAAAAAAAAAAAAAGhAAAEAADBSgoAJCCAAABAEIAACQCAAAAAAAAAAAAAEAAAAAABIAAAAAAAAEAAAAAAGIyKCAAAAAAAAAAAAAAAAAAAAAAAAAAAAAAA==
> <PUBCHEM_IUPAC_OPENEYE_NAME>
methyl 12-[tert-butyl(dimethyl)silyl]oxyicosanoate
> <PUBCHEM_IUPAC_CAS_NAME>
12-[tert-butyl(dimethyl)silyl]oxyeicosanoic acid methyl ester
> <PUBCHEM_IUPAC_NAME_MARKUP>
methyl 12-[<I>tert</I>-butyl(dimethyl)silyl]oxyicosanoate
> <PUBCHEM_IUPAC_NAME>
methyl 12-[tert-butyl(dimethyl)silyl]oxyicosanoate
> <PUBCHEM_IUPAC_SYSTEMATIC_NAME>
methyl 12-[tert-butyl(dimethyl)silyl]oxyicosanoate
> <PUBCHEM_IUPAC_TRADITIONAL_NAME>
12-[tert-butyl(dimethyl)silyl]oxyarachidic acid methyl ester
> <PUBCHEM_IUPAC_INCHI>
InChI=1S/C27H56O3Si/c1-8-9-10-11-16-19-22-25(30-31(6,7)27(2,3)4)23-20-17-14-12-13-15-18-21-24-26(28)29-5/h25H,8-24H2,1-7H3
> <PUBCHEM_IUPAC_INCHIKEY>
MSOZAJAVDIMHPP-UHFFFAOYSA-N
> <PUBCHEM_EXACT_MASS>
456.39987218
> <PUBCHEM_MOLECULAR_FORMULA>
C27H56O3Si
> <PUBCHEM_MOLECULAR_WEIGHT>
456.8
> <PUBCHEM_OPENEYE_CAN_SMILES>
CCCCCCCCC(CCCCCCCCCCC(=O)OC)O[Si](C)(C)C(C)(C)C
> <PUBCHEM_OPENEYE_ISO_SMILES>
CCCCCCCCC(CCCCCCCCCCC(=O)OC)O[Si](C)(C)C(C)(C)C
> <PUBCHEM_CACTVS_TPSA>
35.5
> <PUBCHEM_MONOISOTOPIC_WEIGHT>
456.39987218
> <PUBCHEM_TOTAL_CHARGE>
0
> <PUBCHEM_HEAVY_ATOM_COUNT>
31
> <PUBCHEM_ATOM_DEF_STEREO_COUNT>
0
> <PUBCHEM_ATOM_UDEF_STEREO_COUNT>
1
> <PUBCHEM_BOND_DEF_STEREO_COUNT>
0
> <PUBCHEM_BOND_UDEF_STEREO_COUNT>
0
> <PUBCHEM_ISOTOPIC_ATOM_COUNT>
0
> <PUBCHEM_COMPONENT_COUNT>
1
> <PUBCHEM_CACTVS_TAUTO_COUNT>
-1
> <PUBCHEM_COORDINATE_TYPE>
1
5
255
> <PUBCHEM_BONDANNOTATIONS>
6  8  3
$$$$
