526930
  -OEChem-10302200292D
 16 16  0     1  0  0  0  0  0999 V2000
    3.7601   -1.1739    0.0000 S   0  0  0  0  0  0  0  0  0  0  0  0
    4.5691   -0.5861    0.0000 S   0  0  0  0  0  0  0  0  0  0  0  0
    2.6723    1.1739    0.0000 O   0  0  0  0  0  0  0  0  0  0  0  0
    2.9511   -0.5861    0.0000 C   0  0  3  0  0  0  0  0  0  0  0  0
    4.2601    0.3649    0.0000 C   0  0  3  0  0  0  0  0  0  0  0  0
    3.2601    0.3649    0.0000 C   0  0  0  0  0  0  0  0  0  0  0  0
    2.0000   -0.8952    0.0000 C   0  0  0  0  0  0  0  0  0  0  0  0
    4.8479    1.1739    0.0000 C   0  0  0  0  0  0  0  0  0  0  0  0
    2.8181   -1.4257    0.0000 H   0  0  0  0  0  0  0  0  0  0  0  0
    5.0996    0.2319    0.0000 H   0  0  0  0  0  0  0  0  0  0  0  0
    1.8084   -0.3055    0.0000 H   0  0  0  0  0  0  0  0  0  0  0  0
    1.4103   -1.0868    0.0000 H   0  0  0  0  0  0  0  0  0  0  0  0
    2.1916   -1.4848    0.0000 H   0  0  0  0  0  0  0  0  0  0  0  0
    5.3494    0.8095    0.0000 H   0  0  0  0  0  0  0  0  0  0  0  0
    5.2123    1.6755    0.0000 H   0  0  0  0  0  0  0  0  0  0  0  0
    4.3463    1.5384    0.0000 H   0  0  0  0  0  0  0  0  0  0  0  0
  1  2  1  0  0  0  0
  1  4  1  0  0  0  0
  2  5  1  0  0  0  0
  3  6  2  0  0  0  0
  4  6  1  0  0  0  0
  4  7  1  0  0  0  0
  4  9  1  0  0  0  0
  5  6  1  0  0  0  0
  5  8  1  0  0  0  0
  5 10  1  0  0  0  0
  7 11  1  0  0  0  0
  7 12  1  0  0  0  0
  7 13  1  0  0  0  0
  8 14  1  0  0  0  0
  8 15  1  0  0  0  0
  8 16  1  0  0  0  0
M  END
> <PUBCHEM_COMPOUND_CID>
526930
> <PUBCHEM_COMPOUND_CANONICALIZED>
1
> <PUBCHEM_CACTVS_COMPLEXITY>
101
> <PUBCHEM_CACTVS_HBOND_ACCEPTOR>
3
> <PUBCHEM_CACTVS_HBOND_DONOR>
0
> <PUBCHEM_CACTVS_ROTATABLE_BOND>
0
> <PUBCHEM_CACTVS_SUBSKEYS>
AAADccBgIABgAAAAAAAAAAAAAAAAASAAAAAAAAAAAAAAAAAAAAAAGgQAAAAACASEwACCAAAAAAAIAIAQAAAAAAAAAAAAAAEAAAAAAAIAAAAAAAAAAAAAAAAAAAAAAAAAAAAAAAAAAAAAAAAAAAAAAAAAAA==
> <PUBCHEM_IUPAC_OPENEYE_NAME>
3,5-dimethyldithiolan-4-one
> <PUBCHEM_IUPAC_CAS_NAME>
3,5-dimethyl-4-dithiolanone
> <PUBCHEM_IUPAC_NAME_MARKUP>
3,5-dimethyldithiolan-4-one
> <PUBCHEM_IUPAC_NAME>
3,5-dimethyldithiolan-4-one
> <PUBCHEM_IUPAC_SYSTEMATIC_NAME>
3,5-dimethyl-1,2-dithiolan-4-one
> <PUBCHEM_IUPAC_TRADITIONAL_NAME>
3,5-dimethyldithiolan-4-one
> <PUBCHEM_IUPAC_INCHI>
InChI=1S/C5H8OS2/c1-3-5(6)4(2)8-7-3/h3-4H,1-2H3
> <PUBCHEM_IUPAC_INCHIKEY>
DYTKSLFUSUKZJN-UHFFFAOYSA-N
> <PUBCHEM_XLOGP3_AA>
1.4
> <PUBCHEM_EXACT_MASS>
148.00165722
> <PUBCHEM_MOLECULAR_FORMULA>
C5H8OS2
> <PUBCHEM_MOLECULAR_WEIGHT>
148.3
> <PUBCHEM_OPENEYE_CAN_SMILES>
CC1C(=O)C(SS1)C
> <PUBCHEM_OPENEYE_ISO_SMILES>
CC1C(=O)C(SS1)C
> <PUBCHEM_CACTVS_TPSA>
67.7
> <PUBCHEM_MONOISOTOPIC_WEIGHT>
148.00165722
> <PUBCHEM_TOTAL_CHARGE>
0
> <PUBCHEM_HEAVY_ATOM_COUNT>
8
> <PUBCHEM_ATOM_DEF_STEREO_COUNT>
0
> <PUBCHEM_ATOM_UDEF_STEREO_COUNT>
2
> <PUBCHEM_BOND_DEF_STEREO_COUNT>
0
> <PUBCHEM_BOND_UDEF_STEREO_COUNT>
0
> <PUBCHEM_ISOTOPIC_ATOM_COUNT>
0
> <PUBCHEM_COMPONENT_COUNT>
1
> <PUBCHEM_CACTVS_TAUTO_COUNT>
2
> <PUBCHEM_COORDINATE_TYPE>
1
5
255
> <PUBCHEM_BONDANNOTATIONS>
4  9  3
5  10  3
$$$$
