526935
  -OEChem-10302200292D
 31 31  0     1  0  0  0  0  0999 V2000
    4.1701   -0.0919    0.0000 S   0  0  0  0  0  0  0  0  0  0  0  0
    3.7634   -1.0054    0.0000 S   0  0  0  0  0  0  0  0  0  0  0  0
    4.8511   -3.3533    0.0000 O   0  0  0  0  0  0  0  0  0  0  0  0
    2.4067    2.3352    0.0000 O   0  0  0  0  0  0  0  0  0  0  0  0
    3.5823    0.7172    0.0000 C   0  0  3  0  0  0  0  0  0  0  0  0
    2.5878    0.6126    0.0000 C   0  0  0  0  0  0  0  0  0  0  0  0
    3.9890    1.6307    0.0000 C   0  0  0  0  0  0  0  0  0  0  0  0
    2.0000    1.4216    0.0000 C   0  0  0  0  0  0  0  0  0  0  0  0
    3.4013    2.4397    0.0000 C   0  0  0  0  0  0  0  0  0  0  0  0
    3.8080    3.3533    0.0000 C   0  0  0  0  0  0  0  0  0  0  0  0
    4.3511   -1.8144    0.0000 C   0  0  0  0  0  0  0  0  0  0  0  0
    4.0421   -2.7655    0.0000 C   0  0  0  0  0  0  0  0  0  0  0  0
    5.3511   -1.8144    0.0000 C   0  0  0  0  0  0  0  0  0  0  0  0
    3.0911   -3.0745    0.0000 C   0  0  0  0  0  0  0  0  0  0  0  0
    5.6602   -2.7655    0.0000 C   0  0  0  0  0  0  0  0  0  0  0  0
    3.3301    0.1508    0.0000 H   0  0  0  0  0  0  0  0  0  0  0  0
    2.0305    0.3408    0.0000 H   0  0  0  0  0  0  0  0  0  0  0  0
    2.7587    0.0166    0.0000 H   0  0  0  0  0  0  0  0  0  0  0  0
    4.5030    1.2840    0.0000 H   0  0  0  0  0  0  0  0  0  0  0  0
    4.4197    2.0767    0.0000 H   0  0  0  0  0  0  0  0  0  0  0  0
    2.5016    1.7861    0.0000 H   0  0  0  0  0  0  0  0  0  0  0  0
    1.6356    1.9232    0.0000 H   0  0  0  0  0  0  0  0  0  0  0  0
    1.4984    1.0572    0.0000 H   0  0  0  0  0  0  0  0  0  0  0  0
    4.3744    3.1011    0.0000 H   0  0  0  0  0  0  0  0  0  0  0  0
    4.0602    3.9197    0.0000 H   0  0  0  0  0  0  0  0  0  0  0  0
    3.2416    3.6054    0.0000 H   0  0  0  0  0  0  0  0  0  0  0  0
    5.7156   -1.3128    0.0000 H   0  0  0  0  0  0  0  0  0  0  0  0
    2.8995   -2.4848    0.0000 H   0  0  0  0  0  0  0  0  0  0  0  0
    2.5014   -3.2661    0.0000 H   0  0  0  0  0  0  0  0  0  0  0  0
    3.2827   -3.6642    0.0000 H   0  0  0  0  0  0  0  0  0  0  0  0
    6.2498   -2.9571    0.0000 H   0  0  0  0  0  0  0  0  0  0  0  0
  1  2  1  0  0  0  0
  1  5  1  0  0  0  0
  2 11  1  0  0  0  0
  3 12  1  0  0  0  0
  3 15  1  0  0  0  0
  4  9  2  0  0  0  0
  5  6  1  0  0  0  0
  5  7  1  0  0  0  0
  5 16  1  0  0  0  0
  6  8  1  0  0  0  0
  6 17  1  0  0  0  0
  6 18  1  0  0  0  0
  7  9  1  0  0  0  0
  7 19  1  0  0  0  0
  7 20  1  0  0  0  0
  8 21  1  0  0  0  0
  8 22  1  0  0  0  0
  8 23  1  0  0  0  0
  9 10  1  0  0  0  0
 10 24  1  0  0  0  0
 10 25  1  0  0  0  0
 10 26  1  0  0  0  0
 11 12  2  0  0  0  0
 11 13  1  0  0  0  0
 12 14  1  0  0  0  0
 13 15  2  0  0  0  0
 13 27  1  0  0  0  0
 14 28  1  0  0  0  0
 14 29  1  0  0  0  0
 14 30  1  0  0  0  0
 15 31  1  0  0  0  0
M  END
> <PUBCHEM_COMPOUND_CID>
526935
> <PUBCHEM_COMPOUND_CANONICALIZED>
1
> <PUBCHEM_CACTVS_COMPLEXITY>
209
> <PUBCHEM_CACTVS_HBOND_ACCEPTOR>
4
> <PUBCHEM_CACTVS_HBOND_DONOR>
0
> <PUBCHEM_CACTVS_ROTATABLE_BOND>
6
> <PUBCHEM_CACTVS_SUBSKEYS>
AAADceBwMABgAAAAAAAAAAAAAAAAASAAAAAAAAAAAAAAAAABgAAAGgQAAAAACASk0AKyBYAABECIAKhSgAAGCAAkIAAIiBsGCMgMJjKENBqCGSCkwBEIqYeIAAAAAAAAAAAAAAAAAAAAAAAAAAAAAAAAAA==
> <PUBCHEM_IUPAC_OPENEYE_NAME>
4-[(2-methyl-3-furyl)disulfanyl]hexan-2-one
> <PUBCHEM_IUPAC_CAS_NAME>
4-[(2-methyl-3-furanyl)disulfanyl]-2-hexanone
> <PUBCHEM_IUPAC_NAME_MARKUP>
4-[(2-methylfuran-3-yl)disulfanyl]hexan-2-one
> <PUBCHEM_IUPAC_NAME>
4-[(2-methylfuran-3-yl)disulfanyl]hexan-2-one
> <PUBCHEM_IUPAC_SYSTEMATIC_NAME>
4-[(2-methylfuran-3-yl)disulfanyl]hexan-2-one
> <PUBCHEM_IUPAC_TRADITIONAL_NAME>
4-[(2-methyl-3-furyl)disulfanyl]hexan-2-one
> <PUBCHEM_IUPAC_INCHI>
InChI=1S/C11H16O2S2/c1-4-10(7-8(2)12)14-15-11-5-6-13-9(11)3/h5-6,10H,4,7H2,1-3H3
> <PUBCHEM_IUPAC_INCHIKEY>
KXVQZICIWRLUDP-UHFFFAOYSA-N
> <PUBCHEM_XLOGP3_AA>
2.5
> <PUBCHEM_EXACT_MASS>
244.05917210
> <PUBCHEM_MOLECULAR_FORMULA>
C11H16O2S2
> <PUBCHEM_MOLECULAR_WEIGHT>
244.4
> <PUBCHEM_OPENEYE_CAN_SMILES>
CCC(CC(=O)C)SSC1=C(OC=C1)C
> <PUBCHEM_OPENEYE_ISO_SMILES>
CCC(CC(=O)C)SSC1=C(OC=C1)C
> <PUBCHEM_CACTVS_TPSA>
80.8
> <PUBCHEM_MONOISOTOPIC_WEIGHT>
244.05917210
> <PUBCHEM_TOTAL_CHARGE>
0
> <PUBCHEM_HEAVY_ATOM_COUNT>
15
> <PUBCHEM_ATOM_DEF_STEREO_COUNT>
0
> <PUBCHEM_ATOM_UDEF_STEREO_COUNT>
1
> <PUBCHEM_BOND_DEF_STEREO_COUNT>
0
> <PUBCHEM_BOND_UDEF_STEREO_COUNT>
0
> <PUBCHEM_ISOTOPIC_ATOM_COUNT>
0
> <PUBCHEM_COMPONENT_COUNT>
1
> <PUBCHEM_CACTVS_TAUTO_COUNT>
-1
> <PUBCHEM_COORDINATE_TYPE>
1
5
255
> <PUBCHEM_BONDANNOTATIONS>
11  12  8
11  13  8
13  15  8
3  12  8
3  15  8
5  6  3
$$$$
