526992
  -OEChem-10302200292D
 35 35  0     1  0  0  0  0  0999 V2000
    7.1962   -0.8170    0.0000 O   0  0  0  0  0  0  0  0  0  0  0  0
    8.0622    0.6830    0.0000 O   0  0  0  0  0  0  0  0  0  0  0  0
    6.3301   -0.3170    0.0000 C   0  0  3  0  0  0  0  0  0  0  0  0
    5.4641   -0.8170    0.0000 C   0  0  0  0  0  0  0  0  0  0  0  0
    6.3301    0.6830    0.0000 C   0  0  0  0  0  0  0  0  0  0  0  0
    8.0622   -0.3170    0.0000 C   0  0  0  0  0  0  0  0  0  0  0  0
    4.5981   -0.3170    0.0000 C   0  0  0  0  0  0  0  0  0  0  0  0
    7.1962    1.1830    0.0000 C   0  0  0  0  0  0  0  0  0  0  0  0
    3.7320   -0.8170    0.0000 C   0  0  0  0  0  0  0  0  0  0  0  0
    9.0622   -0.3170    0.0000 C   0  0  0  0  0  0  0  0  0  0  0  0
    8.5622   -1.1830    0.0000 C   0  0  0  0  0  0  0  0  0  0  0  0
    2.8660   -0.3170    0.0000 C   0  0  0  0  0  0  0  0  0  0  0  0
    2.0000   -0.8170    0.0000 C   0  0  0  0  0  0  0  0  0  0  0  0
    6.3301   -0.9370    0.0000 H   0  0  0  0  0  0  0  0  0  0  0  0
    5.0656   -1.2919    0.0000 H   0  0  0  0  0  0  0  0  0  0  0  0
    5.8626   -1.2919    0.0000 H   0  0  0  0  0  0  0  0  0  0  0  0
    6.1181    1.2656    0.0000 H   0  0  0  0  0  0  0  0  0  0  0  0
    5.7196    0.5754    0.0000 H   0  0  0  0  0  0  0  0  0  0  0  0
    4.9966    0.1580    0.0000 H   0  0  0  0  0  0  0  0  0  0  0  0
    4.1996    0.1580    0.0000 H   0  0  0  0  0  0  0  0  0  0  0  0
    7.5947    1.6580    0.0000 H   0  0  0  0  0  0  0  0  0  0  0  0
    6.7976    1.6580    0.0000 H   0  0  0  0  0  0  0  0  0  0  0  0
    3.3335   -1.2919    0.0000 H   0  0  0  0  0  0  0  0  0  0  0  0
    4.1306   -1.2919    0.0000 H   0  0  0  0  0  0  0  0  0  0  0  0
    9.0622   -0.9370    0.0000 H   0  0  0  0  0  0  0  0  0  0  0  0
    9.6822   -0.3170    0.0000 H   0  0  0  0  0  0  0  0  0  0  0  0
    9.0622    0.3030    0.0000 H   0  0  0  0  0  0  0  0  0  0  0  0
    8.0252   -1.4930    0.0000 H   0  0  0  0  0  0  0  0  0  0  0  0
    8.8722   -1.7200    0.0000 H   0  0  0  0  0  0  0  0  0  0  0  0
    9.0991   -0.8730    0.0000 H   0  0  0  0  0  0  0  0  0  0  0  0
    3.2646    0.1580    0.0000 H   0  0  0  0  0  0  0  0  0  0  0  0
    2.4675    0.1580    0.0000 H   0  0  0  0  0  0  0  0  0  0  0  0
    1.6900   -0.2801    0.0000 H   0  0  0  0  0  0  0  0  0  0  0  0
    1.4631   -1.1270    0.0000 H   0  0  0  0  0  0  0  0  0  0  0  0
    2.3100   -1.3539    0.0000 H   0  0  0  0  0  0  0  0  0  0  0  0
  1  3  1  0  0  0  0
  1  6  1  0  0  0  0
  2  6  1  0  0  0  0
  2  8  1  0  0  0  0
  3  4  1  0  0  0  0
  3  5  1  0  0  0  0
  3 14  1  0  0  0  0
  4  7  1  0  0  0  0
  4 15  1  0  0  0  0
  4 16  1  0  0  0  0
  5  8  1  0  0  0  0
  5 17  1  0  0  0  0
  5 18  1  0  0  0  0
  6 10  1  0  0  0  0
  6 11  1  0  0  0  0
  7  9  1  0  0  0  0
  7 19  1  0  0  0  0
  7 20  1  0  0  0  0
  8 21  1  0  0  0  0
  8 22  1  0  0  0  0
  9 12  1  0  0  0  0
  9 23  1  0  0  0  0
  9 24  1  0  0  0  0
 10 25  1  0  0  0  0
 10 26  1  0  0  0  0
 10 27  1  0  0  0  0
 11 28  1  0  0  0  0
 11 29  1  0  0  0  0
 11 30  1  0  0  0  0
 12 13  1  0  0  0  0
 12 31  1  0  0  0  0
 12 32  1  0  0  0  0
 13 33  1  0  0  0  0
 13 34  1  0  0  0  0
 13 35  1  0  0  0  0
M  END
> <PUBCHEM_COMPOUND_CID>
526992
> <PUBCHEM_COMPOUND_CANONICALIZED>
1
> <PUBCHEM_CACTVS_COMPLEXITY>
143
> <PUBCHEM_CACTVS_HBOND_ACCEPTOR>
2
> <PUBCHEM_CACTVS_HBOND_DONOR>
0
> <PUBCHEM_CACTVS_ROTATABLE_BOND>
4
> <PUBCHEM_CACTVS_SUBSKEYS>
AAADceBwMAAAAAAAAAAAAAAAAAAAAAAAAAAkAAAAAAAAAAAAAAAAGgAAAAAACBSggAICCAAABAAAAAAAAAAAAAAAAAAAAAAAAAAQAAIAAAAiAAAFAAAEAAGAwKAAAAAAAAAAAAAAAAAAAAAAAAAAAAAAAA==
> <PUBCHEM_IUPAC_OPENEYE_NAME>
2,2-dimethyl-4-pentyl-1,3-dioxane
> <PUBCHEM_IUPAC_CAS_NAME>
2,2-dimethyl-4-pentyl-1,3-dioxane
> <PUBCHEM_IUPAC_NAME_MARKUP>
2,2-dimethyl-4-pentyl-1,3-dioxane
> <PUBCHEM_IUPAC_NAME>
2,2-dimethyl-4-pentyl-1,3-dioxane
> <PUBCHEM_IUPAC_SYSTEMATIC_NAME>
2,2-dimethyl-4-pentyl-1,3-dioxane
> <PUBCHEM_IUPAC_TRADITIONAL_NAME>
4-amyl-2,2-dimethyl-1,3-dioxane
> <PUBCHEM_IUPAC_INCHI>
InChI=1S/C11H22O2/c1-4-5-6-7-10-8-9-12-11(2,3)13-10/h10H,4-9H2,1-3H3
> <PUBCHEM_IUPAC_INCHIKEY>
ADNZCWQGZVIHRC-UHFFFAOYSA-N
> <PUBCHEM_XLOGP3_AA>
3.2
> <PUBCHEM_EXACT_MASS>
186.161979940
> <PUBCHEM_MOLECULAR_FORMULA>
C11H22O2
> <PUBCHEM_MOLECULAR_WEIGHT>
186.29
> <PUBCHEM_OPENEYE_CAN_SMILES>
CCCCCC1CCOC(O1)(C)C
> <PUBCHEM_OPENEYE_ISO_SMILES>
CCCCCC1CCOC(O1)(C)C
> <PUBCHEM_CACTVS_TPSA>
18.5
> <PUBCHEM_MONOISOTOPIC_WEIGHT>
186.161979940
> <PUBCHEM_TOTAL_CHARGE>
0
> <PUBCHEM_HEAVY_ATOM_COUNT>
13
> <PUBCHEM_ATOM_DEF_STEREO_COUNT>
0
> <PUBCHEM_ATOM_UDEF_STEREO_COUNT>
1
> <PUBCHEM_BOND_DEF_STEREO_COUNT>
0
> <PUBCHEM_BOND_UDEF_STEREO_COUNT>
0
> <PUBCHEM_ISOTOPIC_ATOM_COUNT>
0
> <PUBCHEM_COMPONENT_COUNT>
1
> <PUBCHEM_CACTVS_TAUTO_COUNT>
-1
> <PUBCHEM_COORDINATE_TYPE>
1
5
255
> <PUBCHEM_BONDANNOTATIONS>
3  4  3
$$$$
