526979
  -OEChem-10302200292D
 53 56  0     1  0  0  0  0  0999 V2000
    8.6500    1.5983    0.0000 O   0  0  0  0  0  0  0  0  0  0  0  0
    2.0000   -2.7092    0.0000 O   0  0  0  0  0  0  0  0  0  0  0  0
    9.9391    2.7551    0.0000 O   0  0  0  0  0  0  0  0  0  0  0  0
    6.5271   -1.1569    0.0000 C   0  0  3  0  0  0  0  0  0  0  0  0
    5.6610   -0.6569    0.0000 C   0  0  3  0  0  0  0  0  0  0  0  0
    7.3931   -0.6569    0.0000 C   0  0  3  0  0  0  0  0  0  0  0  0
    7.3931    0.3431    0.0000 C   0  0  3  0  0  0  0  0  0  0  0  0
    4.7510   -1.1638    0.0000 C   0  0  3  0  0  0  0  0  0  0  0  0
    4.7430   -2.2054    0.0000 C   0  0  3  0  0  0  0  0  0  0  0  0
    5.6610    0.3431    0.0000 C   0  0  0  0  0  0  0  0  0  0  0  0
    6.5271    0.8431    0.0000 C   0  0  0  0  0  0  0  0  0  0  0  0
    6.5431   -2.1984    0.0000 C   0  0  0  0  0  0  0  0  0  0  0  0
    8.3393    0.6478    0.0000 C   0  0  3  0  0  0  0  0  0  0  0  0
    8.3393   -0.9616    0.0000 C   0  0  0  0  0  0  0  0  0  0  0  0
    5.6451   -2.7262    0.0000 C   0  0  0  0  0  0  0  0  0  0  0  0
    8.9229   -0.1569    0.0000 C   0  0  0  0  0  0  0  0  0  0  0  0
    3.8242   -0.5997    0.0000 C   0  0  0  0  0  0  0  0  0  0  0  0
    7.3931    1.3431    0.0000 C   0  0  0  0  0  0  0  0  0  0  0  0
    4.7587   -0.1638    0.0000 C   0  0  0  0  0  0  0  0  0  0  0  0
    3.8076   -2.7551    0.0000 C   0  0  0  0  0  0  0  0  0  0  0  0
    2.8763   -1.1276    0.0000 C   0  0  0  0  0  0  0  0  0  0  0  0
    2.8680   -2.2126    0.0000 C   0  0  0  0  0  0  0  0  0  0  0  0
    9.6285    1.8046    0.0000 C   0  0  0  0  0  0  0  0  0  0  0  0
    7.0664   -1.4628    0.0000 H   0  0  0  0  0  0  0  0  0  0  0  0
    6.1980   -0.3469    0.0000 H   0  0  0  0  0  0  0  0  0  0  0  0
    7.4587   -1.2734    0.0000 H   0  0  0  0  0  0  0  0  0  0  0  0
    4.7454   -2.8253    0.0000 H   0  0  0  0  0  0  0  0  0  0  0  0
    5.4490    0.9257    0.0000 H   0  0  0  0  0  0  0  0  0  0  0  0
    5.0504    0.2354    0.0000 H   0  0  0  0  0  0  0  0  0  0  0  0
    6.9256    1.3180    0.0000 H   0  0  0  0  0  0  0  0  0  0  0  0
    6.1285    1.3180    0.0000 H   0  0  0  0  0  0  0  0  0  0  0  0
    6.7612   -2.7788    0.0000 H   0  0  0  0  0  0  0  0  0  0  0  0
    7.1523   -2.0829    0.0000 H   0  0  0  0  0  0  0  0  0  0  0  0
    7.9018    1.0872    0.0000 H   0  0  0  0  0  0  0  0  0  0  0  0
    8.0883   -1.5286    0.0000 H   0  0  0  0  0  0  0  0  0  0  0  0
    8.8767   -1.2709    0.0000 H   0  0  0  0  0  0  0  0  0  0  0  0
    5.2478   -3.2021    0.0000 H   0  0  0  0  0  0  0  0  0  0  0  0
    6.0460   -3.1991    0.0000 H   0  0  0  0  0  0  0  0  0  0  0  0
    9.3838   -0.5716    0.0000 H   0  0  0  0  0  0  0  0  0  0  0  0
    9.3838    0.2578    0.0000 H   0  0  0  0  0  0  0  0  0  0  0  0
    4.2324   -0.1330    0.0000 H   0  0  0  0  0  0  0  0  0  0  0  0
    3.4343   -0.1176    0.0000 H   0  0  0  0  0  0  0  0  0  0  0  0
    8.0131    1.3431    0.0000 H   0  0  0  0  0  0  0  0  0  0  0  0
    7.3931    1.9631    0.0000 H   0  0  0  0  0  0  0  0  0  0  0  0
    6.7731    1.3431    0.0000 H   0  0  0  0  0  0  0  0  0  0  0  0
    5.3787   -0.1686    0.0000 H   0  0  0  0  0  0  0  0  0  0  0  0
    4.7635    0.4562    0.0000 H   0  0  0  0  0  0  0  0  0  0  0  0
    4.1388   -0.1590    0.0000 H   0  0  0  0  0  0  0  0  0  0  0  0
    3.4103   -3.2311    0.0000 H   0  0  0  0  0  0  0  0  0  0  0  0
    4.2085   -3.2280    0.0000 H   0  0  0  0  0  0  0  0  0  0  0  0
    2.6718   -0.5423    0.0000 H   0  0  0  0  0  0  0  0  0  0  0  0
    2.2647   -1.2290    0.0000 H   0  0  0  0  0  0  0  0  0  0  0  0
   10.0425    1.3431    0.0000 H   0  0  0  0  0  0  0  0  0  0  0  0
  1 13  1  0  0  0  0
  1 23  1  0  0  0  0
  2 22  2  0  0  0  0
  3 23  2  0  0  0  0
  4  5  1  0  0  0  0
  4  6  1  0  0  0  0
  4 12  1  0  0  0  0
  4 24  1  0  0  0  0
  5  8  1  0  0  0  0
  5 10  1  0  0  0  0
  5 25  1  0  0  0  0
  6  7  1  0  0  0  0
  6 14  1  0  0  0  0
  6 26  1  0  0  0  0
  7 11  1  0  0  0  0
  7 13  1  0  0  0  0
  7 18  1  0  0  0  0
  8  9  1  0  0  0  0
  8 17  1  0  0  0  0
  8 19  1  0  0  0  0
  9 15  1  0  0  0  0
  9 20  1  0  0  0  0
  9 27  1  0  0  0  0
 10 11  1  0  0  0  0
 10 28  1  0  0  0  0
 10 29  1  0  0  0  0
 11 30  1  0  0  0  0
 11 31  1  0  0  0  0
 12 15  1  0  0  0  0
 12 32  1  0  0  0  0
 12 33  1  0  0  0  0
 13 16  1  0  0  0  0
 13 34  1  0  0  0  0
 14 16  1  0  0  0  0
 14 35  1  0  0  0  0
 14 36  1  0  0  0  0
 15 37  1  0  0  0  0
 15 38  1  0  0  0  0
 16 39  1  0  0  0  0
 16 40  1  0  0  0  0
 17 21  1  0  0  0  0
 17 41  1  0  0  0  0
 17 42  1  0  0  0  0
 18 43  1  0  0  0  0
 18 44  1  0  0  0  0
 18 45  1  0  0  0  0
 19 46  1  0  0  0  0
 19 47  1  0  0  0  0
 19 48  1  0  0  0  0
 20 22  1  0  0  0  0
 20 49  1  0  0  0  0
 20 50  1  0  0  0  0
 21 22  1  0  0  0  0
 21 51  1  0  0  0  0
 21 52  1  0  0  0  0
 23 53  1  0  0  0  0
M  END
> <PUBCHEM_COMPOUND_CID>
526979
> <PUBCHEM_COMPOUND_CANONICALIZED>
1
> <PUBCHEM_CACTVS_COMPLEXITY>
515
> <PUBCHEM_CACTVS_HBOND_ACCEPTOR>
3
> <PUBCHEM_CACTVS_HBOND_DONOR>
0
> <PUBCHEM_CACTVS_ROTATABLE_BOND>
2
> <PUBCHEM_CACTVS_SUBSKEYS>
AAADceB4MAAAAAAAAAAAAAAAAAAAAYAAAAAwYMAAAAAAAGDAAAAAGgAAAAAADxSggAMCCAAABAAIAIAQiAAAAAAAAAAAAAEAAAAAABIAAAAAAAAEAAAAAAGIyPCPgAAAAAAAAACAAAQAACAAAIAADAAAAA==
> <PUBCHEM_IUPAC_OPENEYE_NAME>
(10,13-dimethyl-3-oxo-1,2,4,5,6,7,8,9,11,12,14,15,16,17-tetradecahydrocyclopenta[a]phenanthren-17-yl) formate
> <PUBCHEM_IUPAC_CAS_NAME>
formic acid (10,13-dimethyl-3-oxo-1,2,4,5,6,7,8,9,11,12,14,15,16,17-tetradecahydrocyclopenta[a]phenanthren-17-yl) ester
> <PUBCHEM_IUPAC_NAME_MARKUP>
(10,13-dimethyl-3-oxo-1,2,4,5,6,7,8,9,11,12,14,15,16,17-tetradecahydrocyclopenta[a]phenanthren-17-yl) formate
> <PUBCHEM_IUPAC_NAME>
(10,13-dimethyl-3-oxo-1,2,4,5,6,7,8,9,11,12,14,15,16,17-tetradecahydrocyclopenta[a]phenanthren-17-yl) formate
> <PUBCHEM_IUPAC_SYSTEMATIC_NAME>
(10,13-dimethyl-3-oxidanylidene-1,2,4,5,6,7,8,9,11,12,14,15,16,17-tetradecahydrocyclopenta[a]phenanthren-17-yl) methanoate
> <PUBCHEM_IUPAC_TRADITIONAL_NAME>
formic acid (3-keto-10,13-dimethyl-1,2,4,5,6,7,8,9,11,12,14,15,16,17-tetradecahydrocyclopenta[a]phenanthren-17-yl) ester
> <PUBCHEM_IUPAC_INCHI>
InChI=1S/C20H30O3/c1-19-9-7-14(22)11-13(19)3-4-15-16-5-6-18(23-12-21)20(16,2)10-8-17(15)19/h12-13,15-18H,3-11H2,1-2H3
> <PUBCHEM_IUPAC_INCHIKEY>
ZQSXNBHXKJQHBH-UHFFFAOYSA-N
> <PUBCHEM_XLOGP3>
4.2
> <PUBCHEM_EXACT_MASS>
318.21949481
> <PUBCHEM_MOLECULAR_FORMULA>
C20H30O3
> <PUBCHEM_MOLECULAR_WEIGHT>
318.4
> <PUBCHEM_OPENEYE_CAN_SMILES>
CC12CCC(=O)CC1CCC3C2CCC4(C3CCC4OC=O)C
> <PUBCHEM_OPENEYE_ISO_SMILES>
CC12CCC(=O)CC1CCC3C2CCC4(C3CCC4OC=O)C
> <PUBCHEM_CACTVS_TPSA>
43.4
> <PUBCHEM_MONOISOTOPIC_WEIGHT>
318.21949481
> <PUBCHEM_TOTAL_CHARGE>
0
> <PUBCHEM_HEAVY_ATOM_COUNT>
23
> <PUBCHEM_ATOM_DEF_STEREO_COUNT>
0
> <PUBCHEM_ATOM_UDEF_STEREO_COUNT>
7
> <PUBCHEM_BOND_DEF_STEREO_COUNT>
0
> <PUBCHEM_BOND_UDEF_STEREO_COUNT>
0
> <PUBCHEM_ISOTOPIC_ATOM_COUNT>
0
> <PUBCHEM_COMPONENT_COUNT>
1
> <PUBCHEM_CACTVS_TAUTO_COUNT>
-1
> <PUBCHEM_COORDINATE_TYPE>
1
5
255
> <PUBCHEM_BONDANNOTATIONS>
13  1  3
4  12  3
5  10  3
6  14  3
7  18  3
8  19  3
9  15  3
$$$$
