526969
  -OEChem-10302200292D
 34 35  0     1  0  0  0  0  0999 V2000
    3.5981    0.0000    0.0000 O   0  0  0  0  0  0  0  0  0  0  0  0
    6.0981    0.8660    0.0000 O   0  0  0  0  0  0  0  0  0  0  0  0
    6.0981   -0.8660    0.0000 O   0  0  0  0  0  0  0  0  0  0  0  0
    2.0000   -1.5000    0.0000 O   0  5  0  0  0  0  0  0  0  0  0  0
    2.8660    0.0000    0.0000 O   0  0  0  0  0  0  0  0  0  0  0  0
    2.8660   -1.0000    0.0000 N   0  3  0  0  0  0  0  0  0  0  0  0
    4.5981    0.0000    0.0000 C   0  0  3  0  0  0  0  0  0  0  0  0
    4.5981   -1.0000    0.0000 C   0  0  0  0  0  0  0  0  0  0  0  0
    4.5981    1.0000    0.0000 C   0  0  0  0  0  0  0  0  0  0  0  0
    3.7320   -1.5000    0.0000 C   0  0  0  0  0  0  0  0  0  0  0  0
    5.5981    0.0000    0.0000 C   0  0  0  0  0  0  0  0  0  0  0  0
    5.4641   -1.5000    0.0000 C   0  0  0  0  0  0  0  0  0  0  0  0
    3.7320    1.5000    0.0000 C   0  0  0  0  0  0  0  0  0  0  0  0
    5.4641    1.5000    0.0000 C   0  0  0  0  0  0  0  0  0  0  0  0
    3.7320   -2.5000    0.0000 C   0  0  0  0  0  0  0  0  0  0  0  0
    5.4641   -2.5000    0.0000 C   0  0  0  0  0  0  0  0  0  0  0  0
    4.5981   -3.0000    0.0000 C   0  0  0  0  0  0  0  0  0  0  0  0
    3.7320    2.5000    0.0000 C   0  0  0  0  0  0  0  0  0  0  0  0
    5.4641    2.5000    0.0000 C   0  0  0  0  0  0  0  0  0  0  0  0
    4.5981    3.0000    0.0000 C   0  0  0  0  0  0  0  0  0  0  0  0
    7.0981    0.8660    0.0000 C   0  0  0  0  0  0  0  0  0  0  0  0
    6.0010   -1.1900    0.0000 H   0  0  0  0  0  0  0  0  0  0  0  0
    3.1951    1.1900    0.0000 H   0  0  0  0  0  0  0  0  0  0  0  0
    6.0010    1.1900    0.0000 H   0  0  0  0  0  0  0  0  0  0  0  0
    3.2881    0.5369    0.0000 H   0  0  0  0  0  0  0  0  0  0  0  0
    3.1951   -2.8100    0.0000 H   0  0  0  0  0  0  0  0  0  0  0  0
    6.0010   -2.8100    0.0000 H   0  0  0  0  0  0  0  0  0  0  0  0
    4.5981   -3.6200    0.0000 H   0  0  0  0  0  0  0  0  0  0  0  0
    3.1951    2.8100    0.0000 H   0  0  0  0  0  0  0  0  0  0  0  0
    6.0010    2.8100    0.0000 H   0  0  0  0  0  0  0  0  0  0  0  0
    4.5981    3.6200    0.0000 H   0  0  0  0  0  0  0  0  0  0  0  0
    7.0981    0.2460    0.0000 H   0  0  0  0  0  0  0  0  0  0  0  0
    7.7181    0.8660    0.0000 H   0  0  0  0  0  0  0  0  0  0  0  0
    7.0981    1.4860    0.0000 H   0  0  0  0  0  0  0  0  0  0  0  0
  1  7  1  0  0  0  0
  1 25  1  0  0  0  0
  2 11  1  0  0  0  0
  2 21  1  0  0  0  0
  3 11  2  0  0  0  0
  4  6  1  0  0  0  0
  5  6  2  0  0  0  0
  6 10  1  0  0  0  0
  7  8  1  0  0  0  0
  7  9  1  0  0  0  0
  7 11  1  0  0  0  0
  8 10  1  0  0  0  0
  8 12  2  0  0  0  0
  9 13  2  0  0  0  0
  9 14  1  0  0  0  0
 10 15  2  0  0  0  0
 12 16  1  0  0  0  0
 12 22  1  0  0  0  0
 13 18  1  0  0  0  0
 13 23  1  0  0  0  0
 14 19  2  0  0  0  0
 14 24  1  0  0  0  0
 15 17  1  0  0  0  0
 15 26  1  0  0  0  0
 16 17  2  0  0  0  0
 16 27  1  0  0  0  0
 17 28  1  0  0  0  0
 18 20  2  0  0  0  0
 18 29  1  0  0  0  0
 19 20  1  0  0  0  0
 19 30  1  0  0  0  0
 20 31  1  0  0  0  0
 21 32  1  0  0  0  0
 21 33  1  0  0  0  0
 21 34  1  0  0  0  0
M  CHG  2   4  -1   6   1
M  END
> <PUBCHEM_COMPOUND_CID>
526969
> <PUBCHEM_COMPOUND_CANONICALIZED>
1
> <PUBCHEM_CACTVS_COMPLEXITY>
388
> <PUBCHEM_CACTVS_HBOND_ACCEPTOR>
5
> <PUBCHEM_CACTVS_HBOND_DONOR>
1
> <PUBCHEM_CACTVS_ROTATABLE_BOND>
4
> <PUBCHEM_CACTVS_SUBSKEYS>
AAADccByOAAAAAAAAAAAAAAAAAAAAAAAAAAwYAAAAAAAAAABQAAAHgAECAAADEyBmAIyyIAQRgCJAiTSSwKCAAAgAgAoiAFAbIoJJjKAlZGAcABmwAEL2Ae8yOCOgAAAAAACAAAAAAAAAAQAAAAAAAAAAA==
> <PUBCHEM_IUPAC_OPENEYE_NAME>
methyl 2-hydroxy-2-(2-nitrophenyl)-2-phenyl-acetate
> <PUBCHEM_IUPAC_CAS_NAME>
2-hydroxy-2-(2-nitrophenyl)-2-phenylacetic acid methyl ester
> <PUBCHEM_IUPAC_NAME_MARKUP>
methyl 2-hydroxy-2-(2-nitrophenyl)-2-phenylacetate
> <PUBCHEM_IUPAC_NAME>
methyl 2-hydroxy-2-(2-nitrophenyl)-2-phenylacetate
> <PUBCHEM_IUPAC_SYSTEMATIC_NAME>
methyl 2-(2-nitrophenyl)-2-oxidanyl-2-phenyl-ethanoate
> <PUBCHEM_IUPAC_TRADITIONAL_NAME>
2-hydroxy-2-(2-nitrophenyl)-2-phenyl-acetic acid methyl ester
> <PUBCHEM_IUPAC_INCHI>
InChI=1S/C15H13NO5/c1-21-14(17)15(18,11-7-3-2-4-8-11)12-9-5-6-10-13(12)16(19)20/h2-10,18H,1H3
> <PUBCHEM_IUPAC_INCHIKEY>
JPDKSFMTVLDBEK-UHFFFAOYSA-N
> <PUBCHEM_XLOGP3_AA>
2.5
> <PUBCHEM_EXACT_MASS>
287.07937252
> <PUBCHEM_MOLECULAR_FORMULA>
C15H13NO5
> <PUBCHEM_MOLECULAR_WEIGHT>
287.27
> <PUBCHEM_OPENEYE_CAN_SMILES>
COC(=O)C(C1=CC=CC=C1)(C2=CC=CC=C2[N+](=O)[O-])O
> <PUBCHEM_OPENEYE_ISO_SMILES>
COC(=O)C(C1=CC=CC=C1)(C2=CC=CC=C2[N+](=O)[O-])O
> <PUBCHEM_CACTVS_TPSA>
92.4
> <PUBCHEM_MONOISOTOPIC_WEIGHT>
287.07937252
> <PUBCHEM_TOTAL_CHARGE>
0
> <PUBCHEM_HEAVY_ATOM_COUNT>
21
> <PUBCHEM_ATOM_DEF_STEREO_COUNT>
0
> <PUBCHEM_ATOM_UDEF_STEREO_COUNT>
1
> <PUBCHEM_BOND_DEF_STEREO_COUNT>
0
> <PUBCHEM_BOND_UDEF_STEREO_COUNT>
0
> <PUBCHEM_ISOTOPIC_ATOM_COUNT>
0
> <PUBCHEM_COMPONENT_COUNT>
1
> <PUBCHEM_CACTVS_TAUTO_COUNT>
-1
> <PUBCHEM_COORDINATE_TYPE>
1
5
255
> <PUBCHEM_BONDANNOTATIONS>
7  1  3
10  15  8
12  16  8
13  18  8
14  19  8
15  17  8
16  17  8
18  20  8
19  20  8
8  10  8
8  12  8
9  13  8
9  14  8
$$$$
