526947
  -OEChem-10302200292D
 13 13  0     1  0  0  0  0  0999 V2000
    3.7601   -1.1739    0.0000 S   0  0  0  0  0  0  0  0  0  0  0  0
    4.5691   -0.5861    0.0000 S   0  0  0  0  0  0  0  0  0  0  0  0
    2.6723    1.1739    0.0000 O   0  0  0  0  0  0  0  0  0  0  0  0
    2.9511   -0.5861    0.0000 C   0  0  3  0  0  0  0  0  0  0  0  0
    3.2601    0.3649    0.0000 C   0  0  0  0  0  0  0  0  0  0  0  0
    4.2601    0.3649    0.0000 C   0  0  0  0  0  0  0  0  0  0  0  0
    2.0000   -0.8952    0.0000 C   0  0  0  0  0  0  0  0  0  0  0  0
    2.8541   -1.1985    0.0000 H   0  0  0  0  0  0  0  0  0  0  0  0
    4.8665    0.4938    0.0000 H   0  0  0  0  0  0  0  0  0  0  0  0
    4.1953    0.9815    0.0000 H   0  0  0  0  0  0  0  0  0  0  0  0
    1.8084   -0.3055    0.0000 H   0  0  0  0  0  0  0  0  0  0  0  0
    1.4103   -1.0868    0.0000 H   0  0  0  0  0  0  0  0  0  0  0  0
    2.1916   -1.4848    0.0000 H   0  0  0  0  0  0  0  0  0  0  0  0
  1  2  1  0  0  0  0
  1  4  1  0  0  0  0
  2  6  1  0  0  0  0
  3  5  2  0  0  0  0
  4  5  1  0  0  0  0
  4  7  1  0  0  0  0
  4  8  1  0  0  0  0
  5  6  1  0  0  0  0
  6  9  1  0  0  0  0
  6 10  1  0  0  0  0
  7 11  1  0  0  0  0
  7 12  1  0  0  0  0
  7 13  1  0  0  0  0
M  END
> <PUBCHEM_COMPOUND_CID>
526947
> <PUBCHEM_COMPOUND_CANONICALIZED>
1
> <PUBCHEM_CACTVS_COMPLEXITY>
91.7
> <PUBCHEM_CACTVS_HBOND_ACCEPTOR>
3
> <PUBCHEM_CACTVS_HBOND_DONOR>
0
> <PUBCHEM_CACTVS_ROTATABLE_BOND>
0
> <PUBCHEM_CACTVS_SUBSKEYS>
AAADcYBgIABgAAAAAAAAAAAAAAAAASAAAAAAAAAAAAAAAAAAAAAAGgQAAAAACASEwACCAAAAAAAIAIAQAAAAAAAAAAAAAAEAAAAAAAAAAAAAAAAAAAAAAAAAAAAAAAAAAAAAAAAAAAAAAAAAAAAAAAAAAA==
> <PUBCHEM_IUPAC_OPENEYE_NAME>
3-methyldithiolan-4-one
> <PUBCHEM_IUPAC_CAS_NAME>
3-methyl-4-dithiolanone
> <PUBCHEM_IUPAC_NAME_MARKUP>
3-methyldithiolan-4-one
> <PUBCHEM_IUPAC_NAME>
3-methyldithiolan-4-one
> <PUBCHEM_IUPAC_SYSTEMATIC_NAME>
3-methyl-1,2-dithiolan-4-one
> <PUBCHEM_IUPAC_TRADITIONAL_NAME>
3-methyldithiolan-4-one
> <PUBCHEM_IUPAC_INCHI>
InChI=1S/C4H6OS2/c1-3-4(5)2-6-7-3/h3H,2H2,1H3
> <PUBCHEM_IUPAC_INCHIKEY>
ARWPSTDFVNPXSC-UHFFFAOYSA-N
> <PUBCHEM_XLOGP3_AA>
1
> <PUBCHEM_EXACT_MASS>
133.98600716
> <PUBCHEM_MOLECULAR_FORMULA>
C4H6OS2
> <PUBCHEM_MOLECULAR_WEIGHT>
134.2
> <PUBCHEM_OPENEYE_CAN_SMILES>
CC1C(=O)CSS1
> <PUBCHEM_OPENEYE_ISO_SMILES>
CC1C(=O)CSS1
> <PUBCHEM_CACTVS_TPSA>
67.7
> <PUBCHEM_MONOISOTOPIC_WEIGHT>
133.98600716
> <PUBCHEM_TOTAL_CHARGE>
0
> <PUBCHEM_HEAVY_ATOM_COUNT>
7
> <PUBCHEM_ATOM_DEF_STEREO_COUNT>
0
> <PUBCHEM_ATOM_UDEF_STEREO_COUNT>
1
> <PUBCHEM_BOND_DEF_STEREO_COUNT>
0
> <PUBCHEM_BOND_UDEF_STEREO_COUNT>
0
> <PUBCHEM_ISOTOPIC_ATOM_COUNT>
0
> <PUBCHEM_COMPONENT_COUNT>
1
> <PUBCHEM_CACTVS_TAUTO_COUNT>
-1
> <PUBCHEM_COORDINATE_TYPE>
1
5
255
> <PUBCHEM_BONDANNOTATIONS>
4  7  3
$$$$
