526936
  -OEChem-10302200292D
 34 34  0     1  0  0  0  0  0999 V2000
    4.1701   -0.4964    0.0000 S   0  0  0  0  0  0  0  0  0  0  0  0
    3.7634   -1.4099    0.0000 S   0  0  0  0  0  0  0  0  0  0  0  0
    2.4067    1.9307    0.0000 O   0  0  0  0  0  0  0  0  0  0  0  0
    4.8511   -3.7578    0.0000 O   0  0  0  0  0  0  0  0  0  0  0  0
    3.5823    0.3126    0.0000 C   0  0  3  0  0  0  0  0  0  0  0  0
    3.9890    1.2262    0.0000 C   0  0  0  0  0  0  0  0  0  0  0  0
    2.5878    0.2081    0.0000 C   0  0  0  0  0  0  0  0  0  0  0  0
    3.4013    2.0352    0.0000 C   0  0  0  0  0  0  0  0  0  0  0  0
    2.0000    1.0171    0.0000 C   0  0  0  0  0  0  0  0  0  0  0  0
    3.8080    2.9488    0.0000 C   0  0  0  0  0  0  0  0  0  0  0  0
    3.2202    3.7578    0.0000 C   0  0  0  0  0  0  0  0  0  0  0  0
    4.3511   -2.2189    0.0000 C   0  0  0  0  0  0  0  0  0  0  0  0
    4.0421   -3.1700    0.0000 C   0  0  0  0  0  0  0  0  0  0  0  0
    5.3511   -2.2189    0.0000 C   0  0  0  0  0  0  0  0  0  0  0  0
    3.0911   -3.4790    0.0000 C   0  0  0  0  0  0  0  0  0  0  0  0
    5.6602   -3.1700    0.0000 C   0  0  0  0  0  0  0  0  0  0  0  0
    3.3301   -0.2537    0.0000 H   0  0  0  0  0  0  0  0  0  0  0  0
    4.5030    0.8795    0.0000 H   0  0  0  0  0  0  0  0  0  0  0  0
    4.4197    1.6722    0.0000 H   0  0  0  0  0  0  0  0  0  0  0  0
    2.0305   -0.0637    0.0000 H   0  0  0  0  0  0  0  0  0  0  0  0
    2.7587   -0.3879    0.0000 H   0  0  0  0  0  0  0  0  0  0  0  0
    2.5016    1.3816    0.0000 H   0  0  0  0  0  0  0  0  0  0  0  0
    1.6356    1.5187    0.0000 H   0  0  0  0  0  0  0  0  0  0  0  0
    1.4984    0.6527    0.0000 H   0  0  0  0  0  0  0  0  0  0  0  0
    4.3220    2.6021    0.0000 H   0  0  0  0  0  0  0  0  0  0  0  0
    4.2387    3.3948    0.0000 H   0  0  0  0  0  0  0  0  0  0  0  0
    3.7218    4.1222    0.0000 H   0  0  0  0  0  0  0  0  0  0  0  0
    2.8558    4.2594    0.0000 H   0  0  0  0  0  0  0  0  0  0  0  0
    2.7186    3.3934    0.0000 H   0  0  0  0  0  0  0  0  0  0  0  0
    5.7156   -1.7173    0.0000 H   0  0  0  0  0  0  0  0  0  0  0  0
    2.8995   -2.8894    0.0000 H   0  0  0  0  0  0  0  0  0  0  0  0
    2.5014   -3.6706    0.0000 H   0  0  0  0  0  0  0  0  0  0  0  0
    3.2827   -4.0687    0.0000 H   0  0  0  0  0  0  0  0  0  0  0  0
    6.2498   -3.3616    0.0000 H   0  0  0  0  0  0  0  0  0  0  0  0
  1  2  1  0  0  0  0
  1  5  1  0  0  0  0
  2 12  1  0  0  0  0
  3  8  2  0  0  0  0
  4 13  1  0  0  0  0
  4 16  1  0  0  0  0
  5  6  1  0  0  0  0
  5  7  1  0  0  0  0
  5 17  1  0  0  0  0
  6  8  1  0  0  0  0
  6 18  1  0  0  0  0
  6 19  1  0  0  0  0
  7  9  1  0  0  0  0
  7 20  1  0  0  0  0
  7 21  1  0  0  0  0
  8 10  1  0  0  0  0
  9 22  1  0  0  0  0
  9 23  1  0  0  0  0
  9 24  1  0  0  0  0
 10 11  1  0  0  0  0
 10 25  1  0  0  0  0
 10 26  1  0  0  0  0
 11 27  1  0  0  0  0
 11 28  1  0  0  0  0
 11 29  1  0  0  0  0
 12 13  2  0  0  0  0
 12 14  1  0  0  0  0
 13 15  1  0  0  0  0
 14 16  2  0  0  0  0
 14 30  1  0  0  0  0
 15 31  1  0  0  0  0
 15 32  1  0  0  0  0
 15 33  1  0  0  0  0
 16 34  1  0  0  0  0
M  END
> <PUBCHEM_COMPOUND_CID>
526936
> <PUBCHEM_COMPOUND_CANONICALIZED>
1
> <PUBCHEM_CACTVS_COMPLEXITY>
221
> <PUBCHEM_CACTVS_HBOND_ACCEPTOR>
4
> <PUBCHEM_CACTVS_HBOND_DONOR>
0
> <PUBCHEM_CACTVS_ROTATABLE_BOND>
7
> <PUBCHEM_CACTVS_SUBSKEYS>
AAADceBwMABgAAAAAAAAAAAAAAAAASAAAAAAAAAAAAAAAAABgAAAGgQAAAAACASk0AKyBYAABECIAKhSgAAGCAAkIAAIiBsGCMgMJjKENBqCGSCkwBEIqYeIgAAAAAAAAAAAAAAAAAAAAAAAAAAAAAAAAA==
> <PUBCHEM_IUPAC_OPENEYE_NAME>
5-[(2-methyl-3-furyl)disulfanyl]heptan-3-one
> <PUBCHEM_IUPAC_CAS_NAME>
5-[(2-methyl-3-furanyl)disulfanyl]-3-heptanone
> <PUBCHEM_IUPAC_NAME_MARKUP>
5-[(2-methylfuran-3-yl)disulfanyl]heptan-3-one
> <PUBCHEM_IUPAC_NAME>
5-[(2-methylfuran-3-yl)disulfanyl]heptan-3-one
> <PUBCHEM_IUPAC_SYSTEMATIC_NAME>
5-[(2-methylfuran-3-yl)disulfanyl]heptan-3-one
> <PUBCHEM_IUPAC_TRADITIONAL_NAME>
5-[(2-methyl-3-furyl)disulfanyl]heptan-3-one
> <PUBCHEM_IUPAC_INCHI>
InChI=1S/C12H18O2S2/c1-4-10(13)8-11(5-2)15-16-12-6-7-14-9(12)3/h6-7,11H,4-5,8H2,1-3H3
> <PUBCHEM_IUPAC_INCHIKEY>
JPOFMFWFUVKRCT-UHFFFAOYSA-N
> <PUBCHEM_XLOGP3_AA>
3
> <PUBCHEM_EXACT_MASS>
258.07482216
> <PUBCHEM_MOLECULAR_FORMULA>
C12H18O2S2
> <PUBCHEM_MOLECULAR_WEIGHT>
258.4
> <PUBCHEM_OPENEYE_CAN_SMILES>
CCC(CC(=O)CC)SSC1=C(OC=C1)C
> <PUBCHEM_OPENEYE_ISO_SMILES>
CCC(CC(=O)CC)SSC1=C(OC=C1)C
> <PUBCHEM_CACTVS_TPSA>
80.8
> <PUBCHEM_MONOISOTOPIC_WEIGHT>
258.07482216
> <PUBCHEM_TOTAL_CHARGE>
0
> <PUBCHEM_HEAVY_ATOM_COUNT>
16
> <PUBCHEM_ATOM_DEF_STEREO_COUNT>
0
> <PUBCHEM_ATOM_UDEF_STEREO_COUNT>
1
> <PUBCHEM_BOND_DEF_STEREO_COUNT>
0
> <PUBCHEM_BOND_UDEF_STEREO_COUNT>
0
> <PUBCHEM_ISOTOPIC_ATOM_COUNT>
0
> <PUBCHEM_COMPONENT_COUNT>
1
> <PUBCHEM_CACTVS_TAUTO_COUNT>
-1
> <PUBCHEM_COORDINATE_TYPE>
1
5
255
> <PUBCHEM_BONDANNOTATIONS>
12  13  8
12  14  8
14  16  8
4  13  8
4  16  8
5  7  3
$$$$
