526968
  -OEChem-10302200292D
 33 34  0     1  0  0  0  0  0999 V2000
    3.6276    2.0000    0.0000 O   0  0  0  0  0  0  0  0  0  0  0  0
    2.6428    1.1737    0.0000 O   0  0  0  0  0  0  0  0  0  0  0  0
    2.3007   -2.1133    0.0000 O   0  5  0  0  0  0  0  0  0  0  0  0
    2.0000   -0.4076    0.0000 O   0  0  0  0  0  0  0  0  0  0  0  0
    2.6428   -1.1736    0.0000 N   0  3  0  0  0  0  0  0  0  0  0  0
    4.4936    0.5000    0.0000 C   0  0  3  0  0  0  0  0  0  0  0  0
    4.4936   -0.5000    0.0000 C   0  0  0  0  0  0  0  0  0  0  0  0
    5.3596    1.0000    0.0000 C   0  0  0  0  0  0  0  0  0  0  0  0
    3.6276   -1.0000    0.0000 C   0  0  0  0  0  0  0  0  0  0  0  0
    3.6276    1.0000    0.0000 C   0  0  0  0  0  0  0  0  0  0  0  0
    5.3596   -1.0000    0.0000 C   0  0  0  0  0  0  0  0  0  0  0  0
    5.3596    2.0000    0.0000 C   0  0  0  0  0  0  0  0  0  0  0  0
    6.2257    0.5000    0.0000 C   0  0  0  0  0  0  0  0  0  0  0  0
    3.6276   -2.0000    0.0000 C   0  0  0  0  0  0  0  0  0  0  0  0
    5.3596   -2.0000    0.0000 C   0  0  0  0  0  0  0  0  0  0  0  0
    4.4936   -2.5000    0.0000 C   0  0  0  0  0  0  0  0  0  0  0  0
    6.2257    2.5000    0.0000 C   0  0  0  0  0  0  0  0  0  0  0  0
    7.0917    1.0000    0.0000 C   0  0  0  0  0  0  0  0  0  0  0  0
    7.0917    2.0000    0.0000 C   0  0  0  0  0  0  0  0  0  0  0  0
    2.7616    2.5000    0.0000 C   0  0  0  0  0  0  0  0  0  0  0  0
    4.4936    1.1200    0.0000 H   0  0  0  0  0  0  0  0  0  0  0  0
    5.8966   -0.6900    0.0000 H   0  0  0  0  0  0  0  0  0  0  0  0
    4.8227    2.3100    0.0000 H   0  0  0  0  0  0  0  0  0  0  0  0
    6.2257   -0.1200    0.0000 H   0  0  0  0  0  0  0  0  0  0  0  0
    3.0907   -2.3100    0.0000 H   0  0  0  0  0  0  0  0  0  0  0  0
    5.8966   -2.3100    0.0000 H   0  0  0  0  0  0  0  0  0  0  0  0
    4.4936   -3.1200    0.0000 H   0  0  0  0  0  0  0  0  0  0  0  0
    6.2257    3.1200    0.0000 H   0  0  0  0  0  0  0  0  0  0  0  0
    7.6286    0.6900    0.0000 H   0  0  0  0  0  0  0  0  0  0  0  0
    7.6286    2.3100    0.0000 H   0  0  0  0  0  0  0  0  0  0  0  0
    3.0716    3.0369    0.0000 H   0  0  0  0  0  0  0  0  0  0  0  0
    2.2246    2.8100    0.0000 H   0  0  0  0  0  0  0  0  0  0  0  0
    2.4516    1.9631    0.0000 H   0  0  0  0  0  0  0  0  0  0  0  0
  1 10  1  0  0  0  0
  1 20  1  0  0  0  0
  2 10  2  0  0  0  0
  3  5  1  0  0  0  0
  4  5  2  0  0  0  0
  5  9  1  0  0  0  0
  6  7  1  0  0  0  0
  6  8  1  0  0  0  0
  6 10  1  0  0  0  0
  6 21  1  0  0  0  0
  7  9  1  0  0  0  0
  7 11  2  0  0  0  0
  8 12  2  0  0  0  0
  8 13  1  0  0  0  0
  9 14  2  0  0  0  0
 11 15  1  0  0  0  0
 11 22  1  0  0  0  0
 12 17  1  0  0  0  0
 12 23  1  0  0  0  0
 13 18  2  0  0  0  0
 13 24  1  0  0  0  0
 14 16  1  0  0  0  0
 14 25  1  0  0  0  0
 15 16  2  0  0  0  0
 15 26  1  0  0  0  0
 16 27  1  0  0  0  0
 17 19  2  0  0  0  0
 17 28  1  0  0  0  0
 18 19  1  0  0  0  0
 18 29  1  0  0  0  0
 19 30  1  0  0  0  0
 20 31  1  0  0  0  0
 20 32  1  0  0  0  0
 20 33  1  0  0  0  0
M  CHG  2   3  -1   5   1
M  END
> <PUBCHEM_COMPOUND_CID>
526968
> <PUBCHEM_COMPOUND_CANONICALIZED>
1
> <PUBCHEM_CACTVS_COMPLEXITY>
346
> <PUBCHEM_CACTVS_HBOND_ACCEPTOR>
4
> <PUBCHEM_CACTVS_HBOND_DONOR>
0
> <PUBCHEM_CACTVS_ROTATABLE_BOND>
4
> <PUBCHEM_CACTVS_SUBSKEYS>
AAADccByOAAAAAAAAAAAAAAAAAAAAAAAAAAwYAAAAAAAAAABQAAAHgAEAAAADQiBmAIyyIAQRACJAiTSSwCCAAAgAgAoiAEAZIoIIDKAlZGAIABkwAEIyAe8yOCOgAAAAAACAAAAAAAAAAQAAAAAAAAAAA==
> <PUBCHEM_IUPAC_OPENEYE_NAME>
methyl 2-(2-nitrophenyl)-2-phenyl-acetate
> <PUBCHEM_IUPAC_CAS_NAME>
2-(2-nitrophenyl)-2-phenylacetic acid methyl ester
> <PUBCHEM_IUPAC_NAME_MARKUP>
methyl 2-(2-nitrophenyl)-2-phenylacetate
> <PUBCHEM_IUPAC_NAME>
methyl 2-(2-nitrophenyl)-2-phenylacetate
> <PUBCHEM_IUPAC_SYSTEMATIC_NAME>
methyl 2-(2-nitrophenyl)-2-phenyl-ethanoate
> <PUBCHEM_IUPAC_TRADITIONAL_NAME>
2-(2-nitrophenyl)-2-phenyl-acetic acid methyl ester
> <PUBCHEM_IUPAC_INCHI>
InChI=1S/C15H13NO4/c1-20-15(17)14(11-7-3-2-4-8-11)12-9-5-6-10-13(12)16(18)19/h2-10,14H,1H3
> <PUBCHEM_IUPAC_INCHIKEY>
FYNNSSKGMPLBNG-UHFFFAOYSA-N
> <PUBCHEM_XLOGP3_AA>
3.2
> <PUBCHEM_EXACT_MASS>
271.08445790
> <PUBCHEM_MOLECULAR_FORMULA>
C15H13NO4
> <PUBCHEM_MOLECULAR_WEIGHT>
271.27
> <PUBCHEM_OPENEYE_CAN_SMILES>
COC(=O)C(C1=CC=CC=C1)C2=CC=CC=C2[N+](=O)[O-]
> <PUBCHEM_OPENEYE_ISO_SMILES>
COC(=O)C(C1=CC=CC=C1)C2=CC=CC=C2[N+](=O)[O-]
> <PUBCHEM_CACTVS_TPSA>
72.1
> <PUBCHEM_MONOISOTOPIC_WEIGHT>
271.08445790
> <PUBCHEM_TOTAL_CHARGE>
0
> <PUBCHEM_HEAVY_ATOM_COUNT>
20
> <PUBCHEM_ATOM_DEF_STEREO_COUNT>
0
> <PUBCHEM_ATOM_UDEF_STEREO_COUNT>
1
> <PUBCHEM_BOND_DEF_STEREO_COUNT>
0
> <PUBCHEM_BOND_UDEF_STEREO_COUNT>
0
> <PUBCHEM_ISOTOPIC_ATOM_COUNT>
0
> <PUBCHEM_COMPONENT_COUNT>
1
> <PUBCHEM_CACTVS_TAUTO_COUNT>
-1
> <PUBCHEM_COORDINATE_TYPE>
1
5
255
> <PUBCHEM_BONDANNOTATIONS>
11  15  8
12  17  8
13  18  8
14  16  8
15  16  8
17  19  8
18  19  8
6  10  3
7  11  8
7  9  8
8  12  8
8  13  8
9  14  8
$$$$
