526959
  -OEChem-10302200292D
 35 36  0     1  0  0  0  0  0999 V2000
    3.7320    2.0000    0.0000 O   0  0  0  0  0  0  0  0  0  0  0  0
    2.8660    0.5000    0.0000 O   0  0  0  0  0  0  0  0  0  0  0  0
    2.8660   -3.5000    0.0000 O   0  5  0  0  0  0  0  0  0  0  0  0
    2.0000   -2.0000    0.0000 O   0  0  0  0  0  0  0  0  0  0  0  0
    8.0622    3.5000    0.0000 O   0  5  0  0  0  0  0  0  0  0  0  0
    8.9282    2.0000    0.0000 O   0  0  0  0  0  0  0  0  0  0  0  0
    2.8660   -2.5000    0.0000 N   0  3  0  0  0  0  0  0  0  0  0  0
    8.0622    2.5000    0.0000 N   0  3  0  0  0  0  0  0  0  0  0  0
    4.5981    0.5000    0.0000 C   0  0  3  0  0  0  0  0  0  0  0  0
    4.5981   -0.5000    0.0000 C   0  0  0  0  0  0  0  0  0  0  0  0
    5.4641    1.0000    0.0000 C   0  0  0  0  0  0  0  0  0  0  0  0
    3.7320   -1.0000    0.0000 C   0  0  0  0  0  0  0  0  0  0  0  0
    3.7320    1.0000    0.0000 C   0  0  0  0  0  0  0  0  0  0  0  0
    5.4641    2.0000    0.0000 C   0  0  0  0  0  0  0  0  0  0  0  0
    6.3301    0.5000    0.0000 C   0  0  0  0  0  0  0  0  0  0  0  0
    5.4641   -1.0000    0.0000 C   0  0  0  0  0  0  0  0  0  0  0  0
    3.7320   -2.0000    0.0000 C   0  0  0  0  0  0  0  0  0  0  0  0
    6.3301    2.5000    0.0000 C   0  0  0  0  0  0  0  0  0  0  0  0
    7.1962    1.0000    0.0000 C   0  0  0  0  0  0  0  0  0  0  0  0
    5.4641   -2.0000    0.0000 C   0  0  0  0  0  0  0  0  0  0  0  0
    7.1962    2.0000    0.0000 C   0  0  0  0  0  0  0  0  0  0  0  0
    4.5981   -2.5000    0.0000 C   0  0  0  0  0  0  0  0  0  0  0  0
    2.8660    2.5000    0.0000 C   0  0  0  0  0  0  0  0  0  0  0  0
    4.5981    1.1200    0.0000 H   0  0  0  0  0  0  0  0  0  0  0  0
    3.1951   -0.6900    0.0000 H   0  0  0  0  0  0  0  0  0  0  0  0
    4.9272    2.3100    0.0000 H   0  0  0  0  0  0  0  0  0  0  0  0
    6.3301   -0.1200    0.0000 H   0  0  0  0  0  0  0  0  0  0  0  0
    6.0010   -0.6900    0.0000 H   0  0  0  0  0  0  0  0  0  0  0  0
    6.3301    3.1200    0.0000 H   0  0  0  0  0  0  0  0  0  0  0  0
    7.7331    0.6900    0.0000 H   0  0  0  0  0  0  0  0  0  0  0  0
    6.0010   -2.3100    0.0000 H   0  0  0  0  0  0  0  0  0  0  0  0
    4.5981   -3.1200    0.0000 H   0  0  0  0  0  0  0  0  0  0  0  0
    3.1760    3.0369    0.0000 H   0  0  0  0  0  0  0  0  0  0  0  0
    2.3291    2.8100    0.0000 H   0  0  0  0  0  0  0  0  0  0  0  0
    2.5560    1.9631    0.0000 H   0  0  0  0  0  0  0  0  0  0  0  0
  1 13  1  0  0  0  0
  1 23  1  0  0  0  0
  2 13  2  0  0  0  0
  3  7  1  0  0  0  0
  4  7  2  0  0  0  0
  5  8  1  0  0  0  0
  6  8  2  0  0  0  0
  7 17  1  0  0  0  0
  8 21  1  0  0  0  0
  9 10  1  0  0  0  0
  9 11  1  0  0  0  0
  9 13  1  0  0  0  0
  9 24  1  0  0  0  0
 10 12  2  0  0  0  0
 10 16  1  0  0  0  0
 11 14  2  0  0  0  0
 11 15  1  0  0  0  0
 12 17  1  0  0  0  0
 12 25  1  0  0  0  0
 14 18  1  0  0  0  0
 14 26  1  0  0  0  0
 15 19  2  0  0  0  0
 15 27  1  0  0  0  0
 16 20  2  0  0  0  0
 16 28  1  0  0  0  0
 17 22  2  0  0  0  0
 18 21  2  0  0  0  0
 18 29  1  0  0  0  0
 19 21  1  0  0  0  0
 19 30  1  0  0  0  0
 20 22  1  0  0  0  0
 20 31  1  0  0  0  0
 22 32  1  0  0  0  0
 23 33  1  0  0  0  0
 23 34  1  0  0  0  0
 23 35  1  0  0  0  0
M  CHG  4   3  -1   5  -1   7   1   8   1
M  END
> <PUBCHEM_COMPOUND_CID>
526959
> <PUBCHEM_COMPOUND_CANONICALIZED>
1
> <PUBCHEM_CACTVS_COMPLEXITY>
450
> <PUBCHEM_CACTVS_HBOND_ACCEPTOR>
6
> <PUBCHEM_CACTVS_HBOND_DONOR>
0
> <PUBCHEM_CACTVS_ROTATABLE_BOND>
4
> <PUBCHEM_CACTVS_SUBSKEYS>
AAADccBzOAAAAAAAAAAAAAAAAAAAAAAAAAAwYAAAAAAAAAABQAAAHgAEAAAADQiBmAIyyIAQRACJAiTSSwCCAAAgAgAoiAEAZIoIIDKAlZGAIABkwAEIyAeY2eGeiAAAQAAAAAAQAACAAAAAAAAAAAAAAA==
> <PUBCHEM_IUPAC_OPENEYE_NAME>
methyl 2-(3-nitrophenyl)-2-(4-nitrophenyl)acetate
> <PUBCHEM_IUPAC_CAS_NAME>
2-(3-nitrophenyl)-2-(4-nitrophenyl)acetic acid methyl ester
> <PUBCHEM_IUPAC_NAME_MARKUP>
methyl 2-(3-nitrophenyl)-2-(4-nitrophenyl)acetate
> <PUBCHEM_IUPAC_NAME>
methyl 2-(3-nitrophenyl)-2-(4-nitrophenyl)acetate
> <PUBCHEM_IUPAC_SYSTEMATIC_NAME>
methyl 2-(3-nitrophenyl)-2-(4-nitrophenyl)ethanoate
> <PUBCHEM_IUPAC_TRADITIONAL_NAME>
2-(3-nitrophenyl)-2-(4-nitrophenyl)acetic acid methyl ester
> <PUBCHEM_IUPAC_INCHI>
InChI=1S/C15H12N2O6/c1-23-15(18)14(10-5-7-12(8-6-10)16(19)20)11-3-2-4-13(9-11)17(21)22/h2-9,14H,1H3
> <PUBCHEM_IUPAC_INCHIKEY>
SGGOOJCJYBTWBD-UHFFFAOYSA-N
> <PUBCHEM_XLOGP3_AA>
3.1
> <PUBCHEM_EXACT_MASS>
316.06953611
> <PUBCHEM_MOLECULAR_FORMULA>
C15H12N2O6
> <PUBCHEM_MOLECULAR_WEIGHT>
316.26
> <PUBCHEM_OPENEYE_CAN_SMILES>
COC(=O)C(C1=CC=C(C=C1)[N+](=O)[O-])C2=CC(=CC=C2)[N+](=O)[O-]
> <PUBCHEM_OPENEYE_ISO_SMILES>
COC(=O)C(C1=CC=C(C=C1)[N+](=O)[O-])C2=CC(=CC=C2)[N+](=O)[O-]
> <PUBCHEM_CACTVS_TPSA>
118
> <PUBCHEM_MONOISOTOPIC_WEIGHT>
316.06953611
> <PUBCHEM_TOTAL_CHARGE>
0
> <PUBCHEM_HEAVY_ATOM_COUNT>
23
> <PUBCHEM_ATOM_DEF_STEREO_COUNT>
0
> <PUBCHEM_ATOM_UDEF_STEREO_COUNT>
1
> <PUBCHEM_BOND_DEF_STEREO_COUNT>
0
> <PUBCHEM_BOND_UDEF_STEREO_COUNT>
0
> <PUBCHEM_ISOTOPIC_ATOM_COUNT>
0
> <PUBCHEM_COMPONENT_COUNT>
1
> <PUBCHEM_CACTVS_TAUTO_COUNT>
-1
> <PUBCHEM_COORDINATE_TYPE>
1
5
255
> <PUBCHEM_BONDANNOTATIONS>
10  12  8
10  16  8
11  14  8
11  15  8
12  17  8
14  18  8
15  19  8
16  20  8
17  22  8
18  21  8
19  21  8
20  22  8
9  13  3
$$$$
