527018
  -OEChem-10302200292D
 59 61  0     1  0  0  0  0  0999 V2000
    7.1962    4.2500    0.0000 F   0  0  0  0  0  0  0  0  0  0  0  0
    2.0000    2.2500    0.0000 O   0  0  0  0  0  0  0  0  0  0  0  0
    3.7320   -0.7500    0.0000 N   0  0  0  0  0  0  0  0  0  0  0  0
    3.7320    2.2500    0.0000 N   0  0  0  0  0  0  0  0  0  0  0  0
    3.7320    1.2500    0.0000 C   0  0  0  0  0  0  0  0  0  0  0  0
    2.8660    0.7500    0.0000 C   0  0  0  0  0  0  0  0  0  0  0  0
    4.5981    0.7500    0.0000 C   0  0  0  0  0  0  0  0  0  0  0  0
    2.8660   -0.2500    0.0000 C   0  0  0  0  0  0  0  0  0  0  0  0
    4.5981   -0.2500    0.0000 C   0  0  0  0  0  0  0  0  0  0  0  0
    3.7320   -1.7500    0.0000 C   0  0  3  0  0  0  0  0  0  0  0  0
    2.8660   -2.2500    0.0000 C   0  0  0  0  0  0  0  0  0  0  0  0
    4.5981   -2.2500    0.0000 C   0  0  0  0  0  0  0  0  0  0  0  0
    4.5981    2.7500    0.0000 C   0  0  0  0  0  0  0  0  0  0  0  0
    2.8660    2.7500    0.0000 C   0  0  0  0  0  0  0  0  0  0  0  0
    2.8660   -3.2500    0.0000 C   0  0  0  0  0  0  0  0  0  0  0  0
    2.8660    3.7500    0.0000 C   0  0  0  0  0  0  0  0  0  0  0  0
    4.5981    3.7500    0.0000 C   0  0  0  0  0  0  0  0  0  0  0  0
    5.4641    2.2500    0.0000 C   0  0  0  0  0  0  0  0  0  0  0  0
    2.0000    4.2500    0.0000 C   0  0  0  0  0  0  0  0  0  0  0  0
    3.7320   -3.7500    0.0000 C   0  0  0  0  0  0  0  0  0  0  0  0
    2.0000   -3.7500    0.0000 C   0  0  0  0  0  0  0  0  0  0  0  0
    5.4641    4.2500    0.0000 C   0  0  0  0  0  0  0  0  0  0  0  0
    6.3301    2.7500    0.0000 C   0  0  0  0  0  0  0  0  0  0  0  0
    3.7320   -4.7500    0.0000 C   0  0  0  0  0  0  0  0  0  0  0  0
    2.0000   -4.7500    0.0000 C   0  0  0  0  0  0  0  0  0  0  0  0
    6.3301    3.7500    0.0000 C   0  0  0  0  0  0  0  0  0  0  0  0
    2.0000    5.2500    0.0000 C   0  0  0  0  0  0  0  0  0  0  0  0
    2.8660   -5.2500    0.0000 C   0  0  0  0  0  0  0  0  0  0  0  0
    4.2690    1.5600    0.0000 H   0  0  0  0  0  0  0  0  0  0  0  0
    2.6540    1.3326    0.0000 H   0  0  0  0  0  0  0  0  0  0  0  0
    2.2554    0.6423    0.0000 H   0  0  0  0  0  0  0  0  0  0  0  0
    5.2087    0.6423    0.0000 H   0  0  0  0  0  0  0  0  0  0  0  0
    4.8101    1.3326    0.0000 H   0  0  0  0  0  0  0  0  0  0  0  0
    2.2554   -0.1423    0.0000 H   0  0  0  0  0  0  0  0  0  0  0  0
    2.6540   -0.8326    0.0000 H   0  0  0  0  0  0  0  0  0  0  0  0
    4.8101   -0.8326    0.0000 H   0  0  0  0  0  0  0  0  0  0  0  0
    5.2087   -0.1423    0.0000 H   0  0  0  0  0  0  0  0  0  0  0  0
    4.2690   -1.4400    0.0000 H   0  0  0  0  0  0  0  0  0  0  0  0
    2.6540   -1.6674    0.0000 H   0  0  0  0  0  0  0  0  0  0  0  0
    2.2554   -2.3577    0.0000 H   0  0  0  0  0  0  0  0  0  0  0  0
    4.2881   -2.7869    0.0000 H   0  0  0  0  0  0  0  0  0  0  0  0
    5.1350   -2.5600    0.0000 H   0  0  0  0  0  0  0  0  0  0  0  0
    4.9081   -1.7131    0.0000 H   0  0  0  0  0  0  0  0  0  0  0  0
    3.4766    3.6423    0.0000 H   0  0  0  0  0  0  0  0  0  0  0  0
    3.0781    4.3326    0.0000 H   0  0  0  0  0  0  0  0  0  0  0  0
    4.0611    4.0600    0.0000 H   0  0  0  0  0  0  0  0  0  0  0  0
    5.4641    1.6300    0.0000 H   0  0  0  0  0  0  0  0  0  0  0  0
    1.3894    4.3577    0.0000 H   0  0  0  0  0  0  0  0  0  0  0  0
    1.7880    3.6674    0.0000 H   0  0  0  0  0  0  0  0  0  0  0  0
    4.2690   -3.4400    0.0000 H   0  0  0  0  0  0  0  0  0  0  0  0
    1.4631   -3.4400    0.0000 H   0  0  0  0  0  0  0  0  0  0  0  0
    5.4641    4.8700    0.0000 H   0  0  0  0  0  0  0  0  0  0  0  0
    6.8671    2.4400    0.0000 H   0  0  0  0  0  0  0  0  0  0  0  0
    4.2690   -5.0600    0.0000 H   0  0  0  0  0  0  0  0  0  0  0  0
    1.4631   -5.0600    0.0000 H   0  0  0  0  0  0  0  0  0  0  0  0
    2.6200    5.2500    0.0000 H   0  0  0  0  0  0  0  0  0  0  0  0
    2.0000    5.8700    0.0000 H   0  0  0  0  0  0  0  0  0  0  0  0
    1.3800    5.2500    0.0000 H   0  0  0  0  0  0  0  0  0  0  0  0
    2.8660   -5.8700    0.0000 H   0  0  0  0  0  0  0  0  0  0  0  0
  1 26  1  0  0  0  0
  2 14  2  0  0  0  0
  3  8  1  0  0  0  0
  3  9  1  0  0  0  0
  3 10  1  0  0  0  0
  4  5  1  0  0  0  0
  4 13  1  0  0  0  0
  4 14  1  0  0  0  0
  5  6  1  0  0  0  0
  5  7  1  0  0  0  0
  5 29  1  0  0  0  0
  6  8  1  0  0  0  0
  6 30  1  0  0  0  0
  6 31  1  0  0  0  0
  7  9  1  0  0  0  0
  7 32  1  0  0  0  0
  7 33  1  0  0  0  0
  8 34  1  0  0  0  0
  8 35  1  0  0  0  0
  9 36  1  0  0  0  0
  9 37  1  0  0  0  0
 10 11  1  0  0  0  0
 10 12  1  0  0  0  0
 10 38  1  0  0  0  0
 11 15  1  0  0  0  0
 11 39  1  0  0  0  0
 11 40  1  0  0  0  0
 12 41  1  0  0  0  0
 12 42  1  0  0  0  0
 12 43  1  0  0  0  0
 13 17  2  0  0  0  0
 13 18  1  0  0  0  0
 14 16  1  0  0  0  0
 15 20  2  0  0  0  0
 15 21  1  0  0  0  0
 16 19  1  0  0  0  0
 16 44  1  0  0  0  0
 16 45  1  0  0  0  0
 17 22  1  0  0  0  0
 17 46  1  0  0  0  0
 18 23  2  0  0  0  0
 18 47  1  0  0  0  0
 19 27  1  0  0  0  0
 19 48  1  0  0  0  0
 19 49  1  0  0  0  0
 20 24  1  0  0  0  0
 20 50  1  0  0  0  0
 21 25  2  0  0  0  0
 21 51  1  0  0  0  0
 22 26  2  0  0  0  0
 22 52  1  0  0  0  0
 23 26  1  0  0  0  0
 23 53  1  0  0  0  0
 24 28  2  0  0  0  0
 24 54  1  0  0  0  0
 25 28  1  0  0  0  0
 25 55  1  0  0  0  0
 27 56  1  0  0  0  0
 27 57  1  0  0  0  0
 27 58  1  0  0  0  0
 28 59  1  0  0  0  0
M  END
> <PUBCHEM_COMPOUND_CID>
527018
> <PUBCHEM_COMPOUND_CANONICALIZED>
1
> <PUBCHEM_CACTVS_COMPLEXITY>
463
> <PUBCHEM_CACTVS_HBOND_ACCEPTOR>
3
> <PUBCHEM_CACTVS_HBOND_DONOR>
0
> <PUBCHEM_CACTVS_ROTATABLE_BOND>
7
> <PUBCHEM_CACTVS_SUBSKEYS>
AAADceB7IQAAAAAAAAAAAAAAAAAAAAAAAAA8YIAAAAAAAAABQAAAHwAAAAAADCjBmAwywIMAAACIAiVSUACCAAAhAgAIiAEIZIgIIDLA0ZGEIAhghgDIyAcQgIAOAAAAAAAAAAAAAAAAAAAAAAAAAAAAAA==
> <PUBCHEM_IUPAC_OPENEYE_NAME>
N-(4-fluorophenyl)-N-[1-(1-methyl-2-phenyl-ethyl)-4-piperidyl]butanamide
> <PUBCHEM_IUPAC_CAS_NAME>
N-(4-fluorophenyl)-N-[1-(1-phenylpropan-2-yl)-4-piperidinyl]butanamide
> <PUBCHEM_IUPAC_NAME_MARKUP>
<I>N</I>-(4-fluorophenyl)-<I>N</I>-[1-(1-phenylpropan-2-yl)piperidin-4-yl]butanamide
> <PUBCHEM_IUPAC_NAME>
N-(4-fluorophenyl)-N-[1-(1-phenylpropan-2-yl)piperidin-4-yl]butanamide
> <PUBCHEM_IUPAC_SYSTEMATIC_NAME>
N-(4-fluorophenyl)-N-[1-(1-phenylpropan-2-yl)piperidin-4-yl]butanamide
> <PUBCHEM_IUPAC_TRADITIONAL_NAME>
N-(4-fluorophenyl)-N-[1-(1-methyl-2-phenyl-ethyl)-4-piperidyl]butyramide
> <PUBCHEM_IUPAC_INCHI>
InChI=1S/C24H31FN2O/c1-3-7-24(28)27(22-12-10-21(25)11-13-22)23-14-16-26(17-15-23)19(2)18-20-8-5-4-6-9-20/h4-6,8-13,19,23H,3,7,14-18H2,1-2H3
> <PUBCHEM_IUPAC_INCHIKEY>
RHAJTVXIFGHLMN-UHFFFAOYSA-N
> <PUBCHEM_XLOGP3_AA>
5.2
> <PUBCHEM_EXACT_MASS>
382.24204178
> <PUBCHEM_MOLECULAR_FORMULA>
C24H31FN2O
> <PUBCHEM_MOLECULAR_WEIGHT>
382.5
> <PUBCHEM_OPENEYE_CAN_SMILES>
CCCC(=O)N(C1CCN(CC1)C(C)CC2=CC=CC=C2)C3=CC=C(C=C3)F
> <PUBCHEM_OPENEYE_ISO_SMILES>
CCCC(=O)N(C1CCN(CC1)C(C)CC2=CC=CC=C2)C3=CC=C(C=C3)F
> <PUBCHEM_CACTVS_TPSA>
23.6
> <PUBCHEM_MONOISOTOPIC_WEIGHT>
382.24204178
> <PUBCHEM_TOTAL_CHARGE>
0
> <PUBCHEM_HEAVY_ATOM_COUNT>
28
> <PUBCHEM_ATOM_DEF_STEREO_COUNT>
0
> <PUBCHEM_ATOM_UDEF_STEREO_COUNT>
1
> <PUBCHEM_BOND_DEF_STEREO_COUNT>
0
> <PUBCHEM_BOND_UDEF_STEREO_COUNT>
0
> <PUBCHEM_ISOTOPIC_ATOM_COUNT>
0
> <PUBCHEM_COMPONENT_COUNT>
1
> <PUBCHEM_CACTVS_TAUTO_COUNT>
-1
> <PUBCHEM_COORDINATE_TYPE>
1
5
255
> <PUBCHEM_BONDANNOTATIONS>
10  12  3
13  17  8
13  18  8
15  20  8
15  21  8
17  22  8
18  23  8
20  24  8
21  25  8
22  26  8
23  26  8
24  28  8
25  28  8
$$$$
