527070
  -OEChem-10302200292D
 86 85  0     1  0  0  0  0  0999 V2000
   13.2583   -0.2500    0.0000 C   0  0  3  0  0  0  0  0  0  0  0  0
   14.1244    0.2500    0.0000 C   0  0  0  0  0  0  0  0  0  0  0  0
   12.3923    0.2500    0.0000 C   0  0  0  0  0  0  0  0  0  0  0  0
   14.9904   -0.2500    0.0000 C   0  0  0  0  0  0  0  0  0  0  0  0
   19.3205    0.2500    0.0000 C   0  0  3  0  0  0  0  0  0  0  0  0
   15.8564    0.2500    0.0000 C   0  0  0  0  0  0  0  0  0  0  0  0
   18.4545   -0.2500    0.0000 C   0  0  0  0  0  0  0  0  0  0  0  0
   16.7224   -0.2500    0.0000 C   0  0  0  0  0  0  0  0  0  0  0  0
   17.5885    0.2500    0.0000 C   0  0  0  0  0  0  0  0  0  0  0  0
   11.5263   -0.2500    0.0000 C   0  0  0  0  0  0  0  0  0  0  0  0
   10.6603    0.2500    0.0000 C   0  0  0  0  0  0  0  0  0  0  0  0
   20.1865   -0.2500    0.0000 C   0  0  0  0  0  0  0  0  0  0  0  0
    9.7942   -0.2500    0.0000 C   0  0  0  0  0  0  0  0  0  0  0  0
   13.2583   -1.2500    0.0000 C   0  0  0  0  0  0  0  0  0  0  0  0
    8.9282    0.2500    0.0000 C   0  0  0  0  0  0  0  0  0  0  0  0
   21.0526    0.2500    0.0000 C   0  0  0  0  0  0  0  0  0  0  0  0
   19.3205    1.2500    0.0000 C   0  0  0  0  0  0  0  0  0  0  0  0
    8.0622   -0.2500    0.0000 C   0  0  0  0  0  0  0  0  0  0  0  0
    7.1962    0.2500    0.0000 C   0  0  0  0  0  0  0  0  0  0  0  0
   21.9186   -0.2500    0.0000 C   0  0  0  0  0  0  0  0  0  0  0  0
    6.3301   -0.2500    0.0000 C   0  0  0  0  0  0  0  0  0  0  0  0
    5.4641    0.2500    0.0000 C   0  0  0  0  0  0  0  0  0  0  0  0
   22.7846    0.2500    0.0000 C   0  0  0  0  0  0  0  0  0  0  0  0
    4.5981   -0.2500    0.0000 C   0  0  0  0  0  0  0  0  0  0  0  0
    3.7320    0.2500    0.0000 C   0  0  0  0  0  0  0  0  0  0  0  0
   23.6506   -0.2500    0.0000 C   0  0  0  0  0  0  0  0  0  0  0  0
    2.8660   -0.2500    0.0000 C   0  0  0  0  0  0  0  0  0  0  0  0
    2.0000    0.2500    0.0000 C   0  0  0  0  0  0  0  0  0  0  0  0
   13.7953   -0.5600    0.0000 H   0  0  0  0  0  0  0  0  0  0  0  0
   14.5229    0.7249    0.0000 H   0  0  0  0  0  0  0  0  0  0  0  0
   13.7258    0.7249    0.0000 H   0  0  0  0  0  0  0  0  0  0  0  0
   12.7908    0.7249    0.0000 H   0  0  0  0  0  0  0  0  0  0  0  0
   11.9938    0.7249    0.0000 H   0  0  0  0  0  0  0  0  0  0  0  0
   14.5919   -0.7249    0.0000 H   0  0  0  0  0  0  0  0  0  0  0  0
   15.3889   -0.7249    0.0000 H   0  0  0  0  0  0  0  0  0  0  0  0
   19.8574    0.5600    0.0000 H   0  0  0  0  0  0  0  0  0  0  0  0
   16.2549    0.7249    0.0000 H   0  0  0  0  0  0  0  0  0  0  0  0
   15.4579    0.7249    0.0000 H   0  0  0  0  0  0  0  0  0  0  0  0
   18.0560   -0.7249    0.0000 H   0  0  0  0  0  0  0  0  0  0  0  0
   18.8530   -0.7249    0.0000 H   0  0  0  0  0  0  0  0  0  0  0  0
   16.3239   -0.7249    0.0000 H   0  0  0  0  0  0  0  0  0  0  0  0
   17.1210   -0.7249    0.0000 H   0  0  0  0  0  0  0  0  0  0  0  0
   17.9870    0.7249    0.0000 H   0  0  0  0  0  0  0  0  0  0  0  0
   17.1899    0.7249    0.0000 H   0  0  0  0  0  0  0  0  0  0  0  0
   11.1278   -0.7249    0.0000 H   0  0  0  0  0  0  0  0  0  0  0  0
   11.9248   -0.7249    0.0000 H   0  0  0  0  0  0  0  0  0  0  0  0
   11.0588    0.7249    0.0000 H   0  0  0  0  0  0  0  0  0  0  0  0
   10.2617    0.7249    0.0000 H   0  0  0  0  0  0  0  0  0  0  0  0
   19.7880   -0.7249    0.0000 H   0  0  0  0  0  0  0  0  0  0  0  0
   20.5851   -0.7249    0.0000 H   0  0  0  0  0  0  0  0  0  0  0  0
    9.3957   -0.7249    0.0000 H   0  0  0  0  0  0  0  0  0  0  0  0
   10.1928   -0.7249    0.0000 H   0  0  0  0  0  0  0  0  0  0  0  0
   12.6383   -1.2500    0.0000 H   0  0  0  0  0  0  0  0  0  0  0  0
   13.2583   -1.8700    0.0000 H   0  0  0  0  0  0  0  0  0  0  0  0
   13.8783   -1.2500    0.0000 H   0  0  0  0  0  0  0  0  0  0  0  0
    9.3267    0.7249    0.0000 H   0  0  0  0  0  0  0  0  0  0  0  0
    8.5297    0.7249    0.0000 H   0  0  0  0  0  0  0  0  0  0  0  0
   21.4511    0.7249    0.0000 H   0  0  0  0  0  0  0  0  0  0  0  0
   20.6540    0.7249    0.0000 H   0  0  0  0  0  0  0  0  0  0  0  0
   19.9405    1.2500    0.0000 H   0  0  0  0  0  0  0  0  0  0  0  0
   19.3205    1.8700    0.0000 H   0  0  0  0  0  0  0  0  0  0  0  0
   18.7005    1.2500    0.0000 H   0  0  0  0  0  0  0  0  0  0  0  0
    7.6636   -0.7249    0.0000 H   0  0  0  0  0  0  0  0  0  0  0  0
    8.4607   -0.7249    0.0000 H   0  0  0  0  0  0  0  0  0  0  0  0
    7.5947    0.7249    0.0000 H   0  0  0  0  0  0  0  0  0  0  0  0
    6.7976    0.7249    0.0000 H   0  0  0  0  0  0  0  0  0  0  0  0
   21.5201   -0.7249    0.0000 H   0  0  0  0  0  0  0  0  0  0  0  0
   22.3171   -0.7249    0.0000 H   0  0  0  0  0  0  0  0  0  0  0  0
    5.9316   -0.7249    0.0000 H   0  0  0  0  0  0  0  0  0  0  0  0
    6.7287   -0.7249    0.0000 H   0  0  0  0  0  0  0  0  0  0  0  0
    5.8626    0.7249    0.0000 H   0  0  0  0  0  0  0  0  0  0  0  0
    5.0656    0.7249    0.0000 H   0  0  0  0  0  0  0  0  0  0  0  0
   23.1831    0.7249    0.0000 H   0  0  0  0  0  0  0  0  0  0  0  0
   22.3861    0.7249    0.0000 H   0  0  0  0  0  0  0  0  0  0  0  0
    4.1996   -0.7249    0.0000 H   0  0  0  0  0  0  0  0  0  0  0  0
    4.9966   -0.7249    0.0000 H   0  0  0  0  0  0  0  0  0  0  0  0
    4.1306    0.7249    0.0000 H   0  0  0  0  0  0  0  0  0  0  0  0
    3.3335    0.7249    0.0000 H   0  0  0  0  0  0  0  0  0  0  0  0
   23.3406   -0.7869    0.0000 H   0  0  0  0  0  0  0  0  0  0  0  0
   24.1876   -0.5600    0.0000 H   0  0  0  0  0  0  0  0  0  0  0  0
   23.9606    0.2869    0.0000 H   0  0  0  0  0  0  0  0  0  0  0  0
    2.4675   -0.7249    0.0000 H   0  0  0  0  0  0  0  0  0  0  0  0
    3.2646   -0.7249    0.0000 H   0  0  0  0  0  0  0  0  0  0  0  0
    2.3100    0.7869    0.0000 H   0  0  0  0  0  0  0  0  0  0  0  0
    1.4631    0.5600    0.0000 H   0  0  0  0  0  0  0  0  0  0  0  0
    1.6900   -0.2869    0.0000 H   0  0  0  0  0  0  0  0  0  0  0  0
  1  2  1  0  0  0  0
  1  3  1  0  0  0  0
  1 14  1  0  0  0  0
  1 29  1  0  0  0  0
  2  4  1  0  0  0  0
  2 30  1  0  0  0  0
  2 31  1  0  0  0  0
  3 10  1  0  0  0  0
  3 32  1  0  0  0  0
  3 33  1  0  0  0  0
  4  6  1  0  0  0  0
  4 34  1  0  0  0  0
  4 35  1  0  0  0  0
  5  7  1  0  0  0  0
  5 12  1  0  0  0  0
  5 17  1  0  0  0  0
  5 36  1  0  0  0  0
  6  8  1  0  0  0  0
  6 37  1  0  0  0  0
  6 38  1  0  0  0  0
  7  9  1  0  0  0  0
  7 39  1  0  0  0  0
  7 40  1  0  0  0  0
  8  9  1  0  0  0  0
  8 41  1  0  0  0  0
  8 42  1  0  0  0  0
  9 43  1  0  0  0  0
  9 44  1  0  0  0  0
 10 11  1  0  0  0  0
 10 45  1  0  0  0  0
 10 46  1  0  0  0  0
 11 13  1  0  0  0  0
 11 47  1  0  0  0  0
 11 48  1  0  0  0  0
 12 16  1  0  0  0  0
 12 49  1  0  0  0  0
 12 50  1  0  0  0  0
 13 15  1  0  0  0  0
 13 51  1  0  0  0  0
 13 52  1  0  0  0  0
 14 53  1  0  0  0  0
 14 54  1  0  0  0  0
 14 55  1  0  0  0  0
 15 18  1  0  0  0  0
 15 56  1  0  0  0  0
 15 57  1  0  0  0  0
 16 20  1  0  0  0  0
 16 58  1  0  0  0  0
 16 59  1  0  0  0  0
 17 60  1  0  0  0  0
 17 61  1  0  0  0  0
 17 62  1  0  0  0  0
 18 19  1  0  0  0  0
 18 63  1  0  0  0  0
 18 64  1  0  0  0  0
 19 21  1  0  0  0  0
 19 65  1  0  0  0  0
 19 66  1  0  0  0  0
 20 23  1  0  0  0  0
 20 67  1  0  0  0  0
 20 68  1  0  0  0  0
 21 22  1  0  0  0  0
 21 69  1  0  0  0  0
 21 70  1  0  0  0  0
 22 24  1  0  0  0  0
 22 71  1  0  0  0  0
 22 72  1  0  0  0  0
 23 26  1  0  0  0  0
 23 73  1  0  0  0  0
 23 74  1  0  0  0  0
 24 25  1  0  0  0  0
 24 75  1  0  0  0  0
 24 76  1  0  0  0  0
 25 27  1  0  0  0  0
 25 77  1  0  0  0  0
 25 78  1  0  0  0  0
 26 79  1  0  0  0  0
 26 80  1  0  0  0  0
 26 81  1  0  0  0  0
 27 28  1  0  0  0  0
 27 82  1  0  0  0  0
 27 83  1  0  0  0  0
 28 84  1  0  0  0  0
 28 85  1  0  0  0  0
 28 86  1  0  0  0  0
M  END
> <PUBCHEM_COMPOUND_CID>
527070
> <PUBCHEM_COMPOUND_CANONICALIZED>
1
> <PUBCHEM_CACTVS_COMPLEXITY>
269
> <PUBCHEM_CACTVS_HBOND_ACCEPTOR>
0
> <PUBCHEM_CACTVS_HBOND_DONOR>
0
> <PUBCHEM_CACTVS_ROTATABLE_BOND>
23
> <PUBCHEM_CACTVS_SUBSKEYS>
AAADcfB4AAAAAAAAAAAAAAAAAAAAAAAAAAAAAAAAAAAAAAAAAAAAGAAAAAAADQCAAAACAAAAAAAAAAAAAAAAAAAAAAAAAAAAAAAAAAIAAAAAAAAAAAAAAAEAgMAOAAAAAAAAAAAAAAAAAAAAAAAAAAAAAA==
> <PUBCHEM_IUPAC_OPENEYE_NAME>
6,13-dimethylhexacosane
> <PUBCHEM_IUPAC_CAS_NAME>
6,13-dimethylhexacosane
> <PUBCHEM_IUPAC_NAME_MARKUP>
6,13-dimethylhexacosane
> <PUBCHEM_IUPAC_NAME>
6,13-dimethylhexacosane
> <PUBCHEM_IUPAC_SYSTEMATIC_NAME>
6,13-dimethylhexacosane
> <PUBCHEM_IUPAC_TRADITIONAL_NAME>
6,13-dimethylhexacosane
> <PUBCHEM_IUPAC_INCHI>
InChI=1S/C28H58/c1-5-7-9-10-11-12-13-14-15-16-20-24-28(4)26-22-18-17-21-25-27(3)23-19-8-6-2/h27-28H,5-26H2,1-4H3
> <PUBCHEM_IUPAC_INCHIKEY>
YFXSOZFPWXORLL-UHFFFAOYSA-N
> <PUBCHEM_XLOGP3_AA>
14.8
> <PUBCHEM_EXACT_MASS>
394.453851850
> <PUBCHEM_MOLECULAR_FORMULA>
C28H58
> <PUBCHEM_MOLECULAR_WEIGHT>
394.8
> <PUBCHEM_OPENEYE_CAN_SMILES>
CCCCCCCCCCCCCC(C)CCCCCCC(C)CCCCC
> <PUBCHEM_OPENEYE_ISO_SMILES>
CCCCCCCCCCCCCC(C)CCCCCCC(C)CCCCC
> <PUBCHEM_CACTVS_TPSA>
0
> <PUBCHEM_MONOISOTOPIC_WEIGHT>
394.453851850
> <PUBCHEM_TOTAL_CHARGE>
0
> <PUBCHEM_HEAVY_ATOM_COUNT>
28
> <PUBCHEM_ATOM_DEF_STEREO_COUNT>
0
> <PUBCHEM_ATOM_UDEF_STEREO_COUNT>
2
> <PUBCHEM_BOND_DEF_STEREO_COUNT>
0
> <PUBCHEM_BOND_UDEF_STEREO_COUNT>
0
> <PUBCHEM_ISOTOPIC_ATOM_COUNT>
0
> <PUBCHEM_COMPONENT_COUNT>
1
> <PUBCHEM_CACTVS_TAUTO_COUNT>
-1
> <PUBCHEM_COORDINATE_TYPE>
1
5
255
> <PUBCHEM_BONDANNOTATIONS>
1  14  3
5  17  3
$$$$
