527028
  -OEChem-10302200292D
 47 48  0     1  0  0  0  0  0999 V2000
    3.7320    1.2327    0.0000 O   0  0  0  0  0  0  0  0  0  0  0  0
    2.8660   -0.2673    0.0000 O   0  0  0  0  0  0  0  0  0  0  0  0
    7.1962   -0.7673    0.0000 C   0  0  3  0  0  0  0  0  0  0  0  0
    7.1962    0.2327    0.0000 C   0  0  3  0  0  0  0  0  0  0  0  0
    5.4641    0.2327    0.0000 C   0  0  3  0  0  0  0  0  0  0  0  0
    6.3301    0.7327    0.0000 C   0  0  0  0  0  0  0  0  0  0  0  0
    6.3301   -1.2673    0.0000 C   0  0  0  0  0  0  0  0  0  0  0  0
    5.4641   -0.7673    0.0000 C   0  0  0  0  0  0  0  0  0  0  0  0
    8.0901   -1.3020    0.0000 C   0  0  0  0  0  0  0  0  0  0  0  0
    4.5981    0.7327    0.0000 C   0  0  0  0  0  0  0  0  0  0  0  0
    8.0901    0.7674    0.0000 C   0  0  0  0  0  0  0  0  0  0  0  0
    7.1962   -1.7673    0.0000 C   0  0  0  0  0  0  0  0  0  0  0  0
    8.9962   -0.7881    0.0000 C   0  0  0  0  0  0  0  0  0  0  0  0
    8.9962    0.2535    0.0000 C   0  0  0  0  0  0  0  0  0  0  0  0
    4.0981   -0.1333    0.0000 C   0  0  0  0  0  0  0  0  0  0  0  0
    5.0981    1.5987    0.0000 C   0  0  0  0  0  0  0  0  0  0  0  0
    8.0785    1.7673    0.0000 C   0  0  0  0  0  0  0  0  0  0  0  0
    2.8660    0.7327    0.0000 C   0  0  0  0  0  0  0  0  0  0  0  0
    2.0000    1.2327    0.0000 C   0  0  0  0  0  0  0  0  0  0  0  0
    7.1914    0.8527    0.0000 H   0  0  0  0  0  0  0  0  0  0  0  0
    5.4641    0.8527    0.0000 H   0  0  0  0  0  0  0  0  0  0  0  0
    6.7287    1.2076    0.0000 H   0  0  0  0  0  0  0  0  0  0  0  0
    5.9316    1.2076    0.0000 H   0  0  0  0  0  0  0  0  0  0  0  0
    5.9316   -1.7422    0.0000 H   0  0  0  0  0  0  0  0  0  0  0  0
    6.7287   -1.7422    0.0000 H   0  0  0  0  0  0  0  0  0  0  0  0
    4.8535   -0.6596    0.0000 H   0  0  0  0  0  0  0  0  0  0  0  0
    5.2520   -1.3499    0.0000 H   0  0  0  0  0  0  0  0  0  0  0  0
    7.6855   -1.7718    0.0000 H   0  0  0  0  0  0  0  0  0  0  0  0
    8.4837   -1.7810    0.0000 H   0  0  0  0  0  0  0  0  0  0  0  0
    6.5762   -1.7673    0.0000 H   0  0  0  0  0  0  0  0  0  0  0  0
    7.1962   -2.3873    0.0000 H   0  0  0  0  0  0  0  0  0  0  0  0
    7.8162   -1.7673    0.0000 H   0  0  0  0  0  0  0  0  0  0  0  0
    9.2052   -1.3718    0.0000 H   0  0  0  0  0  0  0  0  0  0  0  0
    9.6070   -0.6820    0.0000 H   0  0  0  0  0  0  0  0  0  0  0  0
    9.5319    0.5656    0.0000 H   0  0  0  0  0  0  0  0  0  0  0  0
    3.5611    0.1767    0.0000 H   0  0  0  0  0  0  0  0  0  0  0  0
    3.7881   -0.6703    0.0000 H   0  0  0  0  0  0  0  0  0  0  0  0
    4.6350   -0.4433    0.0000 H   0  0  0  0  0  0  0  0  0  0  0  0
    5.6350    1.2887    0.0000 H   0  0  0  0  0  0  0  0  0  0  0  0
    5.4081    2.1357    0.0000 H   0  0  0  0  0  0  0  0  0  0  0  0
    4.5611    1.9087    0.0000 H   0  0  0  0  0  0  0  0  0  0  0  0
    8.6985    1.7745    0.0000 H   0  0  0  0  0  0  0  0  0  0  0  0
    8.0714    2.3873    0.0000 H   0  0  0  0  0  0  0  0  0  0  0  0
    7.4586    1.7601    0.0000 H   0  0  0  0  0  0  0  0  0  0  0  0
    2.3100    1.7696    0.0000 H   0  0  0  0  0  0  0  0  0  0  0  0
    1.4631    1.5427    0.0000 H   0  0  0  0  0  0  0  0  0  0  0  0
    1.6900    0.6958    0.0000 H   0  0  0  0  0  0  0  0  0  0  0  0
  1 10  1  0  0  0  0
  1 18  1  0  0  0  0
  2 18  2  0  0  0  0
  3  4  1  0  0  0  0
  3  7  1  0  0  0  0
  3  9  1  0  0  0  0
  3 12  1  0  0  0  0
  4  6  1  0  0  0  0
  4 11  1  0  0  0  0
  4 20  1  0  0  0  0
  5  6  1  0  0  0  0
  5  8  1  0  0  0  0
  5 10  1  0  0  0  0
  5 21  1  0  0  0  0
  6 22  1  0  0  0  0
  6 23  1  0  0  0  0
  7  8  1  0  0  0  0
  7 24  1  0  0  0  0
  7 25  1  0  0  0  0
  8 26  1  0  0  0  0
  8 27  1  0  0  0  0
  9 13  1  0  0  0  0
  9 28  1  0  0  0  0
  9 29  1  0  0  0  0
 10 15  1  0  0  0  0
 10 16  1  0  0  0  0
 11 14  2  0  0  0  0
 11 17  1  0  0  0  0
 12 30  1  0  0  0  0
 12 31  1  0  0  0  0
 12 32  1  0  0  0  0
 13 14  1  0  0  0  0
 13 33  1  0  0  0  0
 13 34  1  0  0  0  0
 14 35  1  0  0  0  0
 15 36  1  0  0  0  0
 15 37  1  0  0  0  0
 15 38  1  0  0  0  0
 16 39  1  0  0  0  0
 16 40  1  0  0  0  0
 16 41  1  0  0  0  0
 17 42  1  0  0  0  0
 17 43  1  0  0  0  0
 17 44  1  0  0  0  0
 18 19  1  0  0  0  0
 19 45  1  0  0  0  0
 19 46  1  0  0  0  0
 19 47  1  0  0  0  0
M  END
> <PUBCHEM_COMPOUND_CID>
527028
> <PUBCHEM_COMPOUND_CANONICALIZED>
1
> <PUBCHEM_CACTVS_COMPLEXITY>
394
> <PUBCHEM_CACTVS_HBOND_ACCEPTOR>
2
> <PUBCHEM_CACTVS_HBOND_DONOR>
0
> <PUBCHEM_CACTVS_ROTATABLE_BOND>
3
> <PUBCHEM_CACTVS_SUBSKEYS>
AAADceB4MAAAAAAAAAAAAAAAAAAAAAAAAAAwQAAAAAAAAACAAAAAGgAAAAAAD0SAgAACCAAABACIAiDSCAAAAAAgAAAACAAAAAgAAAIAAQACAAAEgAAIAAOAwPAPgAAAAAAAAACAAAQAACAAAAAAAAAAAA==
> <PUBCHEM_IUPAC_OPENEYE_NAME>
[1-(4a,8-dimethyl-2,3,4,5,6,8a-hexahydro-1H-naphthalen-2-yl)-1-methyl-ethyl] acetate
> <PUBCHEM_IUPAC_CAS_NAME>
acetic acid 2-(4a,8-dimethyl-2,3,4,5,6,8a-hexahydro-1H-naphthalen-2-yl)propan-2-yl ester
> <PUBCHEM_IUPAC_NAME_MARKUP>
2-(4<I>a</I>,8-dimethyl-2,3,4,5,6,8<I>a</I>-hexahydro-1<I>H</I>-naphthalen-2-yl)propan-2-yl acetate
> <PUBCHEM_IUPAC_NAME>
2-(4a,8-dimethyl-2,3,4,5,6,8a-hexahydro-1H-naphthalen-2-yl)propan-2-yl acetate
> <PUBCHEM_IUPAC_SYSTEMATIC_NAME>
2-(4a,8-dimethyl-2,3,4,5,6,8a-hexahydro-1H-naphthalen-2-yl)propan-2-yl ethanoate
> <PUBCHEM_IUPAC_TRADITIONAL_NAME>
acetic acid [1-(4a,8-dimethyl-2,3,4,5,6,8a-hexahydro-1H-naphthalen-2-yl)-1-methyl-ethyl] ester
> <PUBCHEM_IUPAC_INCHI>
InChI=1S/C17H28O2/c1-12-7-6-9-17(5)10-8-14(11-15(12)17)16(3,4)19-13(2)18/h7,14-15H,6,8-11H2,1-5H3
> <PUBCHEM_IUPAC_INCHIKEY>
DGEOCHVUGVJYQB-UHFFFAOYSA-N
> <PUBCHEM_XLOGP3_AA>
4.1
> <PUBCHEM_EXACT_MASS>
264.208930132
> <PUBCHEM_MOLECULAR_FORMULA>
C17H28O2
> <PUBCHEM_MOLECULAR_WEIGHT>
264.4
> <PUBCHEM_OPENEYE_CAN_SMILES>
CC1=CCCC2(C1CC(CC2)C(C)(C)OC(=O)C)C
> <PUBCHEM_OPENEYE_ISO_SMILES>
CC1=CCCC2(C1CC(CC2)C(C)(C)OC(=O)C)C
> <PUBCHEM_CACTVS_TPSA>
26.3
> <PUBCHEM_MONOISOTOPIC_WEIGHT>
264.208930132
> <PUBCHEM_TOTAL_CHARGE>
0
> <PUBCHEM_HEAVY_ATOM_COUNT>
19
> <PUBCHEM_ATOM_DEF_STEREO_COUNT>
0
> <PUBCHEM_ATOM_UDEF_STEREO_COUNT>
3
> <PUBCHEM_BOND_DEF_STEREO_COUNT>
0
> <PUBCHEM_BOND_UDEF_STEREO_COUNT>
0
> <PUBCHEM_ISOTOPIC_ATOM_COUNT>
0
> <PUBCHEM_COMPONENT_COUNT>
1
> <PUBCHEM_CACTVS_TAUTO_COUNT>
-1
> <PUBCHEM_COORDINATE_TYPE>
1
5
255
> <PUBCHEM_BONDANNOTATIONS>
3  12  3
4  6  3
5  10  3
$$$$
