527096
  -OEChem-10302200292D
 45 46  0     1  0  0  0  0  0999 V2000
    8.1962    3.2500    0.0000 F   0  0  0  0  0  0  0  0  0  0  0  0
    7.1962    4.2500    0.0000 F   0  0  0  0  0  0  0  0  0  0  0  0
    6.1962    3.2500    0.0000 F   0  0  0  0  0  0  0  0  0  0  0  0
    7.1962   -0.7500    0.0000 O   0  0  0  0  0  0  0  0  0  0  0  0
    2.8660   -2.2500    0.0000 O   0  0  0  0  0  0  0  0  0  0  0  0
    3.7320   -0.7500    0.0000 N   0  0  0  0  0  0  0  0  0  0  0  0
    6.3301   -1.2500    0.0000 C   0  0  3  0  0  0  0  0  0  0  0  0
    5.4641   -0.7500    0.0000 C   0  0  0  0  0  0  0  0  0  0  0  0
    4.5981   -1.2500    0.0000 C   0  0  0  0  0  0  0  0  0  0  0  0
    6.3301   -2.2500    0.0000 C   0  0  0  0  0  0  0  0  0  0  0  0
    7.1962   -2.7500    0.0000 C   0  0  0  0  0  0  0  0  0  0  0  0
    5.4641   -2.7500    0.0000 C   0  0  0  0  0  0  0  0  0  0  0  0
    7.1962    0.2500    0.0000 C   0  0  0  0  0  0  0  0  0  0  0  0
    3.7320    0.2500    0.0000 C   0  0  0  0  0  0  0  0  0  0  0  0
    2.8660   -1.2500    0.0000 C   0  0  0  0  0  0  0  0  0  0  0  0
    7.1962   -3.7500    0.0000 C   0  0  0  0  0  0  0  0  0  0  0  0
    5.4641   -3.7500    0.0000 C   0  0  0  0  0  0  0  0  0  0  0  0
    6.3301    0.7500    0.0000 C   0  0  0  0  0  0  0  0  0  0  0  0
    8.0622    0.7500    0.0000 C   0  0  0  0  0  0  0  0  0  0  0  0
    6.3301   -4.2500    0.0000 C   0  0  0  0  0  0  0  0  0  0  0  0
    7.1962    2.2500    0.0000 C   0  0  0  0  0  0  0  0  0  0  0  0
    6.3301    1.7500    0.0000 C   0  0  0  0  0  0  0  0  0  0  0  0
    8.0622    1.7500    0.0000 C   0  0  0  0  0  0  0  0  0  0  0  0
    2.0000   -0.7500    0.0000 C   0  0  0  0  0  0  0  0  0  0  0  0
    7.1962    3.2500    0.0000 C   0  0  0  0  0  0  0  0  0  0  0  0
    6.8671   -1.5600    0.0000 H   0  0  0  0  0  0  0  0  0  0  0  0
    5.8626   -0.2751    0.0000 H   0  0  0  0  0  0  0  0  0  0  0  0
    5.0656   -0.2751    0.0000 H   0  0  0  0  0  0  0  0  0  0  0  0
    4.1996   -1.7250    0.0000 H   0  0  0  0  0  0  0  0  0  0  0  0
    4.9966   -1.7250    0.0000 H   0  0  0  0  0  0  0  0  0  0  0  0
    7.7331   -2.4400    0.0000 H   0  0  0  0  0  0  0  0  0  0  0  0
    4.9272   -2.4400    0.0000 H   0  0  0  0  0  0  0  0  0  0  0  0
    4.3520    0.2500    0.0000 H   0  0  0  0  0  0  0  0  0  0  0  0
    3.7320    0.8700    0.0000 H   0  0  0  0  0  0  0  0  0  0  0  0
    3.1120    0.2500    0.0000 H   0  0  0  0  0  0  0  0  0  0  0  0
    7.7331   -4.0600    0.0000 H   0  0  0  0  0  0  0  0  0  0  0  0
    4.9272   -4.0600    0.0000 H   0  0  0  0  0  0  0  0  0  0  0  0
    5.7932    0.4400    0.0000 H   0  0  0  0  0  0  0  0  0  0  0  0
    8.5991    0.4400    0.0000 H   0  0  0  0  0  0  0  0  0  0  0  0
    6.3301   -4.8700    0.0000 H   0  0  0  0  0  0  0  0  0  0  0  0
    5.7932    2.0600    0.0000 H   0  0  0  0  0  0  0  0  0  0  0  0
    8.5991    2.0600    0.0000 H   0  0  0  0  0  0  0  0  0  0  0  0
    2.3100   -0.2131    0.0000 H   0  0  0  0  0  0  0  0  0  0  0  0
    1.4631   -0.4400    0.0000 H   0  0  0  0  0  0  0  0  0  0  0  0
    1.6900   -1.2869    0.0000 H   0  0  0  0  0  0  0  0  0  0  0  0
  1 25  1  0  0  0  0
  2 25  1  0  0  0  0
  3 25  1  0  0  0  0
  4  7  1  0  0  0  0
  4 13  1  0  0  0  0
  5 15  2  0  0  0  0
  6  9  1  0  0  0  0
  6 14  1  0  0  0  0
  6 15  1  0  0  0  0
  7  8  1  0  0  0  0
  7 10  1  0  0  0  0
  7 26  1  0  0  0  0
  8  9  1  0  0  0  0
  8 27  1  0  0  0  0
  8 28  1  0  0  0  0
  9 29  1  0  0  0  0
  9 30  1  0  0  0  0
 10 11  2  0  0  0  0
 10 12  1  0  0  0  0
 11 16  1  0  0  0  0
 11 31  1  0  0  0  0
 12 17  2  0  0  0  0
 12 32  1  0  0  0  0
 13 18  2  0  0  0  0
 13 19  1  0  0  0  0
 14 33  1  0  0  0  0
 14 34  1  0  0  0  0
 14 35  1  0  0  0  0
 15 24  1  0  0  0  0
 16 20  2  0  0  0  0
 16 36  1  0  0  0  0
 17 20  1  0  0  0  0
 17 37  1  0  0  0  0
 18 22  1  0  0  0  0
 18 38  1  0  0  0  0
 19 23  2  0  0  0  0
 19 39  1  0  0  0  0
 20 40  1  0  0  0  0
 21 22  2  0  0  0  0
 21 23  1  0  0  0  0
 21 25  1  0  0  0  0
 22 41  1  0  0  0  0
 23 42  1  0  0  0  0
 24 43  1  0  0  0  0
 24 44  1  0  0  0  0
 24 45  1  0  0  0  0
M  END
> <PUBCHEM_COMPOUND_CID>
527096
> <PUBCHEM_COMPOUND_CANONICALIZED>
1
> <PUBCHEM_CACTVS_COMPLEXITY>
413
> <PUBCHEM_CACTVS_HBOND_ACCEPTOR>
5
> <PUBCHEM_CACTVS_HBOND_DONOR>
0
> <PUBCHEM_CACTVS_ROTATABLE_BOND>
6
> <PUBCHEM_CACTVS_SUBSKEYS>
AAADceB6MYAAAAAAAAAAAAAAAAAAAAAAAAAwYAAAAAAAAAABQAAAHwAAAAAADBThmBYyBoMABACIAiFSEAACCAAgIAAIiAAOCIgMJiKEsRqGOCCmxhGIqAeQwKAOIAAAAAAAAABAAAAAAAAAAAAAAAAAAA==
> <PUBCHEM_IUPAC_OPENEYE_NAME>
N-methyl-N-[3-phenyl-3-[4-(trifluoromethyl)phenoxy]propyl]acetamide
> <PUBCHEM_IUPAC_CAS_NAME>
N-methyl-N-[3-phenyl-3-[4-(trifluoromethyl)phenoxy]propyl]acetamide
> <PUBCHEM_IUPAC_NAME_MARKUP>
<I>N</I>-methyl-<I>N</I>-[3-phenyl-3-[4-(trifluoromethyl)phenoxy]propyl]acetamide
> <PUBCHEM_IUPAC_NAME>
N-methyl-N-[3-phenyl-3-[4-(trifluoromethyl)phenoxy]propyl]acetamide
> <PUBCHEM_IUPAC_SYSTEMATIC_NAME>
N-methyl-N-[3-phenyl-3-[4-(trifluoromethyl)phenoxy]propyl]ethanamide
> <PUBCHEM_IUPAC_TRADITIONAL_NAME>
N-methyl-N-[3-phenyl-3-[4-(trifluoromethyl)phenoxy]propyl]acetamide
> <PUBCHEM_IUPAC_INCHI>
InChI=1S/C19H20F3NO2/c1-14(24)23(2)13-12-18(15-6-4-3-5-7-15)25-17-10-8-16(9-11-17)19(20,21)22/h3-11,18H,12-13H2,1-2H3
> <PUBCHEM_IUPAC_INCHIKEY>
VFRCUAKESBDNII-UHFFFAOYSA-N
> <PUBCHEM_XLOGP3>
4
> <PUBCHEM_EXACT_MASS>
351.14461337
> <PUBCHEM_MOLECULAR_FORMULA>
C19H20F3NO2
> <PUBCHEM_MOLECULAR_WEIGHT>
351.4
> <PUBCHEM_OPENEYE_CAN_SMILES>
CC(=O)N(C)CCC(C1=CC=CC=C1)OC2=CC=C(C=C2)C(F)(F)F
> <PUBCHEM_OPENEYE_ISO_SMILES>
CC(=O)N(C)CCC(C1=CC=CC=C1)OC2=CC=C(C=C2)C(F)(F)F
> <PUBCHEM_CACTVS_TPSA>
29.5
> <PUBCHEM_MONOISOTOPIC_WEIGHT>
351.14461337
> <PUBCHEM_TOTAL_CHARGE>
0
> <PUBCHEM_HEAVY_ATOM_COUNT>
25
> <PUBCHEM_ATOM_DEF_STEREO_COUNT>
0
> <PUBCHEM_ATOM_UDEF_STEREO_COUNT>
1
> <PUBCHEM_BOND_DEF_STEREO_COUNT>
0
> <PUBCHEM_BOND_UDEF_STEREO_COUNT>
0
> <PUBCHEM_ISOTOPIC_ATOM_COUNT>
0
> <PUBCHEM_COMPONENT_COUNT>
1
> <PUBCHEM_CACTVS_TAUTO_COUNT>
-1
> <PUBCHEM_COORDINATE_TYPE>
1
5
255
> <PUBCHEM_BONDANNOTATIONS>
10  11  8
10  12  8
11  16  8
12  17  8
13  18  8
13  19  8
16  20  8
17  20  8
18  22  8
19  23  8
21  22  8
21  23  8
7  8  3
$$$$
