527059
  -OEChem-10302200292D
 31 31  0     1  0  0  0  0  0999 V2000
    8.0622   -2.0000    0.0000 O   0  0  0  0  0  0  0  0  0  0  0  0
    2.8660    2.0000    0.0000 O   0  0  0  0  0  0  0  0  0  0  0  0
    6.3301    0.0000    0.0000 C   0  0  0  0  0  0  0  0  0  0  0  0
    5.4641   -0.5000    0.0000 C   0  0  3  0  0  0  0  0  0  0  0  0
    7.1962   -0.5000    0.0000 C   0  0  0  0  0  0  0  0  0  0  0  0
    6.8301    0.8660    0.0000 C   0  0  0  0  0  0  0  0  0  0  0  0
    5.8301    0.8660    0.0000 C   0  0  0  0  0  0  0  0  0  0  0  0
    5.4641   -1.5000    0.0000 C   0  0  0  0  0  0  0  0  0  0  0  0
    7.1962   -1.5000    0.0000 C   0  0  0  0  0  0  0  0  0  0  0  0
    6.3301   -2.0000    0.0000 C   0  0  0  0  0  0  0  0  0  0  0  0
    4.5981    0.0000    0.0000 C   0  0  0  0  0  0  0  0  0  0  0  0
    4.5981   -2.0000    0.0000 C   0  0  0  0  0  0  0  0  0  0  0  0
    3.7320    0.5000    0.0000 C   0  0  0  0  0  0  0  0  0  0  0  0
    2.8660    1.0000    0.0000 C   0  0  0  0  0  0  0  0  0  0  0  0
    2.0000    0.5000    0.0000 C   0  0  0  0  0  0  0  0  0  0  0  0
    5.4641    0.1200    0.0000 H   0  0  0  0  0  0  0  0  0  0  0  0
    7.8067   -0.6077    0.0000 H   0  0  0  0  0  0  0  0  0  0  0  0
    7.4082    0.0826    0.0000 H   0  0  0  0  0  0  0  0  0  0  0  0
    7.3671    0.5560    0.0000 H   0  0  0  0  0  0  0  0  0  0  0  0
    7.1401    1.4030    0.0000 H   0  0  0  0  0  0  0  0  0  0  0  0
    6.2932    1.1760    0.0000 H   0  0  0  0  0  0  0  0  0  0  0  0
    6.3671    1.1760    0.0000 H   0  0  0  0  0  0  0  0  0  0  0  0
    5.5201    1.4030    0.0000 H   0  0  0  0  0  0  0  0  0  0  0  0
    5.2932    0.5560    0.0000 H   0  0  0  0  0  0  0  0  0  0  0  0
    6.3301   -2.6200    0.0000 H   0  0  0  0  0  0  0  0  0  0  0  0
    4.2881   -1.4631    0.0000 H   0  0  0  0  0  0  0  0  0  0  0  0
    4.0611   -2.3100    0.0000 H   0  0  0  0  0  0  0  0  0  0  0  0
    4.9081   -2.5369    0.0000 H   0  0  0  0  0  0  0  0  0  0  0  0
    1.6900    1.0369    0.0000 H   0  0  0  0  0  0  0  0  0  0  0  0
    1.4631    0.1900    0.0000 H   0  0  0  0  0  0  0  0  0  0  0  0
    2.3100   -0.0369    0.0000 H   0  0  0  0  0  0  0  0  0  0  0  0
  1  9  2  0  0  0  0
  2 14  2  0  0  0  0
  3  4  1  0  0  0  0
  3  5  1  0  0  0  0
  3  6  1  0  0  0  0
  3  7  1  0  0  0  0
  4  8  1  0  0  0  0
  4 11  1  0  0  0  0
  4 16  1  0  0  0  0
  5  9  1  0  0  0  0
  5 17  1  0  0  0  0
  5 18  1  0  0  0  0
  6 19  1  0  0  0  0
  6 20  1  0  0  0  0
  6 21  1  0  0  0  0
  7 22  1  0  0  0  0
  7 23  1  0  0  0  0
  7 24  1  0  0  0  0
  8 10  2  0  0  0  0
  8 12  1  0  0  0  0
  9 10  1  0  0  0  0
 10 25  1  0  0  0  0
 11 13  3  0  0  0  0
 12 26  1  0  0  0  0
 12 27  1  0  0  0  0
 12 28  1  0  0  0  0
 13 14  1  0  0  0  0
 14 15  1  0  0  0  0
 15 29  1  0  0  0  0
 15 30  1  0  0  0  0
 15 31  1  0  0  0  0
M  END
> <PUBCHEM_COMPOUND_CID>
527059
> <PUBCHEM_COMPOUND_CANONICALIZED>
1
> <PUBCHEM_CACTVS_COMPLEXITY>
399
> <PUBCHEM_CACTVS_HBOND_ACCEPTOR>
2
> <PUBCHEM_CACTVS_HBOND_DONOR>
0
> <PUBCHEM_CACTVS_ROTATABLE_BOND>
0
> <PUBCHEM_CACTVS_SUBSKEYS>
AAADceBwMAAAAAAAAAAAAAAAAAAAAAAAAAAgAAAAAAAAAAAAAAAAGgAAAAAADwSAgAACAAAAAADIEqBSAAgAAAAgAAAACAEAAEgAABIAAQAAAAAAgAAIAQMIiAAPgAAAAAAAAAAAAAAAAAAAAAAAAAAAAA==
> <PUBCHEM_IUPAC_OPENEYE_NAME>
3,5,5-trimethyl-4-(3-oxobut-1-ynyl)cyclohex-2-en-1-one
> <PUBCHEM_IUPAC_CAS_NAME>
3,5,5-trimethyl-4-(3-oxobut-1-ynyl)-1-cyclohex-2-enone
> <PUBCHEM_IUPAC_NAME_MARKUP>
3,5,5-trimethyl-4-(3-oxobut-1-ynyl)cyclohex-2-en-1-one
> <PUBCHEM_IUPAC_NAME>
3,5,5-trimethyl-4-(3-oxobut-1-ynyl)cyclohex-2-en-1-one
> <PUBCHEM_IUPAC_SYSTEMATIC_NAME>
3,5,5-trimethyl-4-(3-oxidanylidenebut-1-ynyl)cyclohex-2-en-1-one
> <PUBCHEM_IUPAC_TRADITIONAL_NAME>
4-(3-ketobut-1-ynyl)-3,5,5-trimethyl-cyclohex-2-en-1-one
> <PUBCHEM_IUPAC_INCHI>
InChI=1S/C13H16O2/c1-9-7-11(15)8-13(3,4)12(9)6-5-10(2)14/h7,12H,8H2,1-4H3
> <PUBCHEM_IUPAC_INCHIKEY>
WWUPVQPXAIQTFK-UHFFFAOYSA-N
> <PUBCHEM_XLOGP3_AA>
1.7
> <PUBCHEM_EXACT_MASS>
204.115029749
> <PUBCHEM_MOLECULAR_FORMULA>
C13H16O2
> <PUBCHEM_MOLECULAR_WEIGHT>
204.26
> <PUBCHEM_OPENEYE_CAN_SMILES>
CC1=CC(=O)CC(C1C#CC(=O)C)(C)C
> <PUBCHEM_OPENEYE_ISO_SMILES>
CC1=CC(=O)CC(C1C#CC(=O)C)(C)C
> <PUBCHEM_CACTVS_TPSA>
34.1
> <PUBCHEM_MONOISOTOPIC_WEIGHT>
204.115029749
> <PUBCHEM_TOTAL_CHARGE>
0
> <PUBCHEM_HEAVY_ATOM_COUNT>
15
> <PUBCHEM_ATOM_DEF_STEREO_COUNT>
0
> <PUBCHEM_ATOM_UDEF_STEREO_COUNT>
1
> <PUBCHEM_BOND_DEF_STEREO_COUNT>
0
> <PUBCHEM_BOND_UDEF_STEREO_COUNT>
0
> <PUBCHEM_ISOTOPIC_ATOM_COUNT>
0
> <PUBCHEM_COMPONENT_COUNT>
1
> <PUBCHEM_CACTVS_TAUTO_COUNT>
-1
> <PUBCHEM_COORDINATE_TYPE>
1
5
255
> <PUBCHEM_BONDANNOTATIONS>
4  11  3
$$$$
