527195
  -OEChem-10302200292D
 39 40  0     1  0  0  0  0  0999 V2000
    2.0000   -0.6574    0.0000 O   0  0  0  0  0  0  0  0  0  0  0  0
    6.9345    2.1574    0.0000 O   0  0  0  0  0  0  0  0  0  0  0  0
    3.7320   -0.6574    0.0000 C   0  0  3  0  0  0  0  0  0  0  0  0
    4.5981   -1.1574    0.0000 C   0  0  0  0  0  0  0  0  0  0  0  0
    2.8660   -2.1574    0.0000 C   0  0  3  0  0  0  0  0  0  0  0  0
    4.5981   -2.1574    0.0000 C   0  0  0  0  0  0  0  0  0  0  0  0
    2.8660   -1.1574    0.0000 C   0  0  0  0  0  0  0  0  0  0  0  0
    4.2320    0.2087    0.0000 C   0  0  0  0  0  0  0  0  0  0  0  0
    3.7320   -2.6574    0.0000 C   0  0  0  0  0  0  0  0  0  0  0  0
    3.2320    0.2087    0.0000 C   0  0  0  0  0  0  0  0  0  0  0  0
    5.2320    0.2087    0.0000 C   0  0  0  0  0  0  0  0  0  0  0  0
    2.0000   -2.6574    0.0000 C   0  0  0  0  0  0  0  0  0  0  0  0
    5.7320    1.0747    0.0000 C   0  0  0  0  0  0  0  0  0  0  0  0
    5.3253    1.9882    0.0000 C   0  0  0  0  0  0  0  0  0  0  0  0
    6.7266    1.1792    0.0000 C   0  0  0  0  0  0  0  0  0  0  0  0
    6.0685    2.6574    0.0000 C   0  0  0  0  0  0  0  0  0  0  0  0
    4.3472    2.1961    0.0000 C   0  0  0  0  0  0  0  0  0  0  0  0
    5.2087   -1.2650    0.0000 H   0  0  0  0  0  0  0  0  0  0  0  0
    4.8101   -0.5748    0.0000 H   0  0  0  0  0  0  0  0  0  0  0  0
    2.8660   -2.7774    0.0000 H   0  0  0  0  0  0  0  0  0  0  0  0
    4.8101   -2.7400    0.0000 H   0  0  0  0  0  0  0  0  0  0  0  0
    5.2087   -2.0497    0.0000 H   0  0  0  0  0  0  0  0  0  0  0  0
    4.3397    0.8192    0.0000 H   0  0  0  0  0  0  0  0  0  0  0  0
    3.6494    0.4207    0.0000 H   0  0  0  0  0  0  0  0  0  0  0  0
    3.3335   -3.1323    0.0000 H   0  0  0  0  0  0  0  0  0  0  0  0
    4.1306   -3.1323    0.0000 H   0  0  0  0  0  0  0  0  0  0  0  0
    3.7690    0.5187    0.0000 H   0  0  0  0  0  0  0  0  0  0  0  0
    2.9220    0.7456    0.0000 H   0  0  0  0  0  0  0  0  0  0  0  0
    2.6951   -0.1013    0.0000 H   0  0  0  0  0  0  0  0  0  0  0  0
    5.1244   -0.4019    0.0000 H   0  0  0  0  0  0  0  0  0  0  0  0
    5.8147   -0.0034    0.0000 H   0  0  0  0  0  0  0  0  0  0  0  0
    1.6900   -2.1204    0.0000 H   0  0  0  0  0  0  0  0  0  0  0  0
    1.4631   -2.9674    0.0000 H   0  0  0  0  0  0  0  0  0  0  0  0
    2.3100   -3.1943    0.0000 H   0  0  0  0  0  0  0  0  0  0  0  0
    7.1414    0.7185    0.0000 H   0  0  0  0  0  0  0  0  0  0  0  0
    6.0037    3.2740    0.0000 H   0  0  0  0  0  0  0  0  0  0  0  0
    4.4761    2.8026    0.0000 H   0  0  0  0  0  0  0  0  0  0  0  0
    3.7407    2.3250    0.0000 H   0  0  0  0  0  0  0  0  0  0  0  0
    4.2183    1.5897    0.0000 H   0  0  0  0  0  0  0  0  0  0  0  0
  1  7  2  0  0  0  0
  2 15  1  0  0  0  0
  2 16  1  0  0  0  0
  3  4  1  0  0  0  0
  3  7  1  0  0  0  0
  3  8  1  0  0  0  0
  3 10  1  0  0  0  0
  4  6  1  0  0  0  0
  4 18  1  0  0  0  0
  4 19  1  0  0  0  0
  5  7  1  0  0  0  0
  5  9  1  0  0  0  0
  5 12  1  0  0  0  0
  5 20  1  0  0  0  0
  6  9  1  0  0  0  0
  6 21  1  0  0  0  0
  6 22  1  0  0  0  0
  8 11  1  0  0  0  0
  8 23  1  0  0  0  0
  8 24  1  0  0  0  0
  9 25  1  0  0  0  0
  9 26  1  0  0  0  0
 10 27  1  0  0  0  0
 10 28  1  0  0  0  0
 10 29  1  0  0  0  0
 11 13  1  0  0  0  0
 11 30  1  0  0  0  0
 11 31  1  0  0  0  0
 12 32  1  0  0  0  0
 12 33  1  0  0  0  0
 12 34  1  0  0  0  0
 13 14  1  0  0  0  0
 13 15  2  0  0  0  0
 14 16  2  0  0  0  0
 14 17  1  0  0  0  0
 15 35  1  0  0  0  0
 16 36  1  0  0  0  0
 17 37  1  0  0  0  0
 17 38  1  0  0  0  0
 17 39  1  0  0  0  0
M  END
> <PUBCHEM_COMPOUND_CID>
527195
> <PUBCHEM_COMPOUND_CANONICALIZED>
1
> <PUBCHEM_CACTVS_COMPLEXITY>
287
> <PUBCHEM_CACTVS_HBOND_ACCEPTOR>
2
> <PUBCHEM_CACTVS_HBOND_DONOR>
0
> <PUBCHEM_CACTVS_ROTATABLE_BOND>
3
> <PUBCHEM_CACTVS_SUBSKEYS>
AAADceBwMAAAAAAAAAAAAAAAAAAAASAAAAAwAAAAAAAAAAABgAAAGgAAAAAADwSgmAIiBIAABECIAohSgAACCAAkIAAAiAEECMgMJhIENQqCGSCkwBEIKQOIyPCPgAAAAAAAAAAAAAQAAAAAAAAAAAAAAA==
> <PUBCHEM_IUPAC_OPENEYE_NAME>
2,6-dimethyl-2-[2-(4-methyl-3-furyl)ethyl]cyclohexanone
> <PUBCHEM_IUPAC_CAS_NAME>
2,6-dimethyl-2-[2-(4-methyl-3-furanyl)ethyl]-1-cyclohexanone
> <PUBCHEM_IUPAC_NAME_MARKUP>
2,6-dimethyl-2-[2-(4-methylfuran-3-yl)ethyl]cyclohexan-1-one
> <PUBCHEM_IUPAC_NAME>
2,6-dimethyl-2-[2-(4-methylfuran-3-yl)ethyl]cyclohexan-1-one
> <PUBCHEM_IUPAC_SYSTEMATIC_NAME>
2,6-dimethyl-2-[2-(4-methylfuran-3-yl)ethyl]cyclohexan-1-one
> <PUBCHEM_IUPAC_TRADITIONAL_NAME>
2,6-dimethyl-2-[2-(4-methyl-3-furyl)ethyl]cyclohexanone
> <PUBCHEM_IUPAC_INCHI>
InChI=1S/C15H22O2/c1-11-5-4-7-15(3,14(11)16)8-6-13-10-17-9-12(13)2/h9-11H,4-8H2,1-3H3
> <PUBCHEM_IUPAC_INCHIKEY>
IOEWOOAPVQGVLB-UHFFFAOYSA-N
> <PUBCHEM_XLOGP3_AA>
3.6
> <PUBCHEM_EXACT_MASS>
234.161979940
> <PUBCHEM_MOLECULAR_FORMULA>
C15H22O2
> <PUBCHEM_MOLECULAR_WEIGHT>
234.33
> <PUBCHEM_OPENEYE_CAN_SMILES>
CC1CCCC(C1=O)(C)CCC2=COC=C2C
> <PUBCHEM_OPENEYE_ISO_SMILES>
CC1CCCC(C1=O)(C)CCC2=COC=C2C
> <PUBCHEM_CACTVS_TPSA>
30.2
> <PUBCHEM_MONOISOTOPIC_WEIGHT>
234.161979940
> <PUBCHEM_TOTAL_CHARGE>
0
> <PUBCHEM_HEAVY_ATOM_COUNT>
17
> <PUBCHEM_ATOM_DEF_STEREO_COUNT>
0
> <PUBCHEM_ATOM_UDEF_STEREO_COUNT>
2
> <PUBCHEM_BOND_DEF_STEREO_COUNT>
0
> <PUBCHEM_BOND_UDEF_STEREO_COUNT>
0
> <PUBCHEM_ISOTOPIC_ATOM_COUNT>
0
> <PUBCHEM_COMPONENT_COUNT>
1
> <PUBCHEM_CACTVS_TAUTO_COUNT>
-1
> <PUBCHEM_COORDINATE_TYPE>
1
5
255
> <PUBCHEM_BONDANNOTATIONS>
13  14  8
13  15  8
14  16  8
2  15  8
2  16  8
3  10  3
5  12  3
$$$$
