527184
  -OEChem-10302200292D
 37 38  0     1  0  0  0  0  0999 V2000
    2.0000   -1.2673    0.0000 O   0  0  0  0  0  0  0  0  0  0  0  0
    4.5981   -0.7673    0.0000 C   0  0  3  0  0  0  0  0  0  0  0  0
    4.5981    0.2327    0.0000 C   0  0  3  0  0  0  0  0  0  0  0  0
    5.4920    0.7674    0.0000 C   0  0  3  0  0  0  0  0  0  0  0  0
    5.4920   -1.3020    0.0000 C   0  0  0  0  0  0  0  0  0  0  0  0
    6.3981    0.2535    0.0000 C   0  0  0  0  0  0  0  0  0  0  0  0
    3.7320   -1.2673    0.0000 C   0  0  0  0  0  0  0  0  0  0  0  0
    6.3981   -0.7881    0.0000 C   0  0  0  0  0  0  0  0  0  0  0  0
    4.5981   -1.7673    0.0000 C   0  0  0  0  0  0  0  0  0  0  0  0
    3.7320    0.7327    0.0000 C   0  0  0  0  0  0  0  0  0  0  0  0
    5.4804    1.7673    0.0000 C   0  0  0  0  0  0  0  0  0  0  0  0
    2.8660   -0.7673    0.0000 C   0  0  0  0  0  0  0  0  0  0  0  0
    2.8660    0.2327    0.0000 C   0  0  0  0  0  0  0  0  0  0  0  0
    2.0000    0.7327    0.0000 C   0  0  0  0  0  0  0  0  0  0  0  0
    2.0000    1.7327    0.0000 C   0  0  0  0  0  0  0  0  0  0  0  0
    4.5933    0.8527    0.0000 H   0  0  0  0  0  0  0  0  0  0  0  0
    6.0259    1.0825    0.0000 H   0  0  0  0  0  0  0  0  0  0  0  0
    5.0874   -1.7718    0.0000 H   0  0  0  0  0  0  0  0  0  0  0  0
    5.8856   -1.7810    0.0000 H   0  0  0  0  0  0  0  0  0  0  0  0
    7.0089    0.1474    0.0000 H   0  0  0  0  0  0  0  0  0  0  0  0
    6.6071    0.8372    0.0000 H   0  0  0  0  0  0  0  0  0  0  0  0
    3.3335   -1.7422    0.0000 H   0  0  0  0  0  0  0  0  0  0  0  0
    4.1306   -1.7422    0.0000 H   0  0  0  0  0  0  0  0  0  0  0  0
    6.6071   -1.3718    0.0000 H   0  0  0  0  0  0  0  0  0  0  0  0
    7.0089   -0.6820    0.0000 H   0  0  0  0  0  0  0  0  0  0  0  0
    3.9781   -1.7673    0.0000 H   0  0  0  0  0  0  0  0  0  0  0  0
    4.5981   -2.3873    0.0000 H   0  0  0  0  0  0  0  0  0  0  0  0
    5.2181   -1.7673    0.0000 H   0  0  0  0  0  0  0  0  0  0  0  0
    3.7320    1.3527    0.0000 H   0  0  0  0  0  0  0  0  0  0  0  0
    6.1004    1.7745    0.0000 H   0  0  0  0  0  0  0  0  0  0  0  0
    5.4733    2.3873    0.0000 H   0  0  0  0  0  0  0  0  0  0  0  0
    4.8605    1.7601    0.0000 H   0  0  0  0  0  0  0  0  0  0  0  0
    1.3894    0.8404    0.0000 H   0  0  0  0  0  0  0  0  0  0  0  0
    1.7880    0.1501    0.0000 H   0  0  0  0  0  0  0  0  0  0  0  0
    2.6200    1.7327    0.0000 H   0  0  0  0  0  0  0  0  0  0  0  0
    2.0000    2.3527    0.0000 H   0  0  0  0  0  0  0  0  0  0  0  0
    1.3800    1.7327    0.0000 H   0  0  0  0  0  0  0  0  0  0  0  0
  1 12  2  0  0  0  0
  2  3  1  0  0  0  0
  2  5  1  0  0  0  0
  2  7  1  0  0  0  0
  2  9  1  0  0  0  0
  3  4  1  0  0  0  0
  3 10  1  0  0  0  0
  3 16  1  0  0  0  0
  4  6  1  0  0  0  0
  4 11  1  0  0  0  0
  4 17  1  0  0  0  0
  5  8  1  0  0  0  0
  5 18  1  0  0  0  0
  5 19  1  0  0  0  0
  6  8  1  0  0  0  0
  6 20  1  0  0  0  0
  6 21  1  0  0  0  0
  7 12  1  0  0  0  0
  7 22  1  0  0  0  0
  7 23  1  0  0  0  0
  8 24  1  0  0  0  0
  8 25  1  0  0  0  0
  9 26  1  0  0  0  0
  9 27  1  0  0  0  0
  9 28  1  0  0  0  0
 10 13  2  0  0  0  0
 10 29  1  0  0  0  0
 11 30  1  0  0  0  0
 11 31  1  0  0  0  0
 11 32  1  0  0  0  0
 12 13  1  0  0  0  0
 13 14  1  0  0  0  0
 14 15  1  0  0  0  0
 14 33  1  0  0  0  0
 14 34  1  0  0  0  0
 15 35  1  0  0  0  0
 15 36  1  0  0  0  0
 15 37  1  0  0  0  0
M  END
> <PUBCHEM_COMPOUND_CID>
527184
> <PUBCHEM_COMPOUND_CANONICALIZED>
1
> <PUBCHEM_CACTVS_COMPLEXITY>
303
> <PUBCHEM_CACTVS_HBOND_ACCEPTOR>
1
> <PUBCHEM_CACTVS_HBOND_DONOR>
0
> <PUBCHEM_CACTVS_ROTATABLE_BOND>
1
> <PUBCHEM_CACTVS_SUBSKEYS>
AAADceBwIAAAAAAAAAAAAAAAAAAAAAAAAAAwQAAAAAAAAACAAAAAGgAAAAAADwSAgAACAAAAAACIAqBSAAAAAAAgAAAACAEAAEgAABIAAQAAAAAAgAAIAYMIiMCPgAAAAAAAAAAAAAQAACAAAAAAAAAAAA==
> <PUBCHEM_IUPAC_OPENEYE_NAME>
3-ethyl-5,8a-dimethyl-1,4a,5,6,7,8-hexahydronaphthalen-2-one
> <PUBCHEM_IUPAC_CAS_NAME>
3-ethyl-5,8a-dimethyl-1,4a,5,6,7,8-hexahydronaphthalen-2-one
> <PUBCHEM_IUPAC_NAME_MARKUP>
3-ethyl-5,8<I>a</I>-dimethyl-1,4<I>a</I>,5,6,7,8-hexahydronaphthalen-2-one
> <PUBCHEM_IUPAC_NAME>
3-ethyl-5,8a-dimethyl-1,4a,5,6,7,8-hexahydronaphthalen-2-one
> <PUBCHEM_IUPAC_SYSTEMATIC_NAME>
3-ethyl-5,8a-dimethyl-1,4a,5,6,7,8-hexahydronaphthalen-2-one
> <PUBCHEM_IUPAC_TRADITIONAL_NAME>
3-ethyl-5,8a-dimethyl-1,4a,5,6,7,8-hexahydronaphthalen-2-one
> <PUBCHEM_IUPAC_INCHI>
InChI=1S/C14H22O/c1-4-11-8-12-10(2)6-5-7-14(12,3)9-13(11)15/h8,10,12H,4-7,9H2,1-3H3
> <PUBCHEM_IUPAC_INCHIKEY>
SEOAUNZLBHTCGB-UHFFFAOYSA-N
> <PUBCHEM_XLOGP3_AA>
4
> <PUBCHEM_EXACT_MASS>
206.167065321
> <PUBCHEM_MOLECULAR_FORMULA>
C14H22O
> <PUBCHEM_MOLECULAR_WEIGHT>
206.32
> <PUBCHEM_OPENEYE_CAN_SMILES>
CCC1=CC2C(CCCC2(CC1=O)C)C
> <PUBCHEM_OPENEYE_ISO_SMILES>
CCC1=CC2C(CCCC2(CC1=O)C)C
> <PUBCHEM_CACTVS_TPSA>
17.1
> <PUBCHEM_MONOISOTOPIC_WEIGHT>
206.167065321
> <PUBCHEM_TOTAL_CHARGE>
0
> <PUBCHEM_HEAVY_ATOM_COUNT>
15
> <PUBCHEM_ATOM_DEF_STEREO_COUNT>
0
> <PUBCHEM_ATOM_UDEF_STEREO_COUNT>
3
> <PUBCHEM_BOND_DEF_STEREO_COUNT>
0
> <PUBCHEM_BOND_UDEF_STEREO_COUNT>
0
> <PUBCHEM_ISOTOPIC_ATOM_COUNT>
0
> <PUBCHEM_COMPONENT_COUNT>
1
> <PUBCHEM_CACTVS_TAUTO_COUNT>
-1
> <PUBCHEM_COORDINATE_TYPE>
1
5
255
> <PUBCHEM_BONDANNOTATIONS>
2  9  3
3  10  3
4  11  3
$$$$
