527168
  -OEChem-10302200292D
 40 42  0     1  0  0  0  0  0999 V2000
    4.1196   -0.3536    0.0000 O   0  0  0  0  0  0  0  0  0  0  0  0
    3.8000    0.0000    0.0000 C   0  0  3  0  0  0  0  0  0  0  0  0
    3.8000   -1.0000    0.0000 C   0  0  3  0  0  0  0  0  0  0  0  0
    5.5321    0.0000    0.0000 C   0  0  3  0  0  0  0  0  0  0  0  0
    4.6660    0.5000    0.0000 C   0  0  0  0  0  0  0  0  0  0  0  0
    4.8124    0.0464    0.0000 C   0  0  0  0  0  0  0  0  0  0  0  0
    4.6660   -1.5000    0.0000 C   0  0  0  0  0  0  0  0  0  0  0  0
    2.9061    0.5347    0.0000 C   0  0  3  0  0  0  0  0  0  0  0  0
    5.5321   -1.0000    0.0000 C   0  0  0  0  0  0  0  0  0  0  0  0
    3.8000    1.0000    0.0000 C   0  0  0  0  0  0  0  0  0  0  0  0
    2.9061   -1.5346    0.0000 C   0  0  0  0  0  0  0  0  0  0  0  0
    2.0000    0.0208    0.0000 C   0  0  0  0  0  0  0  0  0  0  0  0
    5.5196    0.7536    0.0000 C   0  0  0  0  0  0  0  0  0  0  0  0
    4.8996    1.0426    0.0000 C   0  0  0  0  0  0  0  0  0  0  0  0
    2.0000   -1.0208    0.0000 C   0  0  0  0  0  0  0  0  0  0  0  0
    2.9176    1.5346    0.0000 C   0  0  0  0  0  0  0  0  0  0  0  0
    6.0690    0.3100    0.0000 H   0  0  0  0  0  0  0  0  0  0  0  0
    5.0646    0.9750    0.0000 H   0  0  0  0  0  0  0  0  0  0  0  0
    4.2675    0.9750    0.0000 H   0  0  0  0  0  0  0  0  0  0  0  0
    4.2675   -1.9749    0.0000 H   0  0  0  0  0  0  0  0  0  0  0  0
    5.0646   -1.9749    0.0000 H   0  0  0  0  0  0  0  0  0  0  0  0
    2.3721    0.8499    0.0000 H   0  0  0  0  0  0  0  0  0  0  0  0
    5.7441   -1.5826    0.0000 H   0  0  0  0  0  0  0  0  0  0  0  0
    6.1426   -0.8923    0.0000 H   0  0  0  0  0  0  0  0  0  0  0  0
    4.4200    1.0000    0.0000 H   0  0  0  0  0  0  0  0  0  0  0  0
    3.8000    1.6200    0.0000 H   0  0  0  0  0  0  0  0  0  0  0  0
    3.1800    1.0000    0.0000 H   0  0  0  0  0  0  0  0  0  0  0  0
    2.9132   -2.1546    0.0000 H   0  0  0  0  0  0  0  0  0  0  0  0
    1.7909    0.6045    0.0000 H   0  0  0  0  0  0  0  0  0  0  0  0
    1.3891   -0.0852    0.0000 H   0  0  0  0  0  0  0  0  0  0  0  0
    5.9580    0.3151    0.0000 H   0  0  0  0  0  0  0  0  0  0  0  0
    5.9580    1.1920    0.0000 H   0  0  0  0  0  0  0  0  0  0  0  0
    5.0812    1.1920    0.0000 H   0  0  0  0  0  0  0  0  0  0  0  0
    5.5172    0.9886    0.0000 H   0  0  0  0  0  0  0  0  0  0  0  0
    4.9536    1.6603    0.0000 H   0  0  0  0  0  0  0  0  0  0  0  0
    4.2820    1.0967    0.0000 H   0  0  0  0  0  0  0  0  0  0  0  0
    1.4643   -1.3328    0.0000 H   0  0  0  0  0  0  0  0  0  0  0  0
    3.5376    1.5275    0.0000 H   0  0  0  0  0  0  0  0  0  0  0  0
    2.9248    2.1546    0.0000 H   0  0  0  0  0  0  0  0  0  0  0  0
    2.2977    1.5418    0.0000 H   0  0  0  0  0  0  0  0  0  0  0  0
  1  3  1  0  0  0  0
  1  6  1  0  0  0  0
  2  3  1  0  0  0  0
  2  5  1  0  0  0  0
  2  8  1  0  0  0  0
  2 10  1  0  0  0  0
  3  7  1  0  0  0  0
  3 11  1  0  0  0  0
  4  5  1  0  0  0  0
  4  6  1  0  0  0  0
  4  9  1  0  0  0  0
  4 17  1  0  0  0  0
  5 18  1  0  0  0  0
  5 19  1  0  0  0  0
  6 13  1  0  0  0  0
  6 14  1  0  0  0  0
  7  9  1  0  0  0  0
  7 20  1  0  0  0  0
  7 21  1  0  0  0  0
  8 12  1  0  0  0  0
  8 16  1  0  0  0  0
  8 22  1  0  0  0  0
  9 23  1  0  0  0  0
  9 24  1  0  0  0  0
 10 25  1  0  0  0  0
 10 26  1  0  0  0  0
 10 27  1  0  0  0  0
 11 15  2  0  0  0  0
 11 28  1  0  0  0  0
 12 15  1  0  0  0  0
 12 29  1  0  0  0  0
 12 30  1  0  0  0  0
 13 31  1  0  0  0  0
 13 32  1  0  0  0  0
 13 33  1  0  0  0  0
 14 34  1  0  0  0  0
 14 35  1  0  0  0  0
 14 36  1  0  0  0  0
 15 37  1  0  0  0  0
 16 38  1  0  0  0  0
 16 39  1  0  0  0  0
 16 40  1  0  0  0  0
M  END
> <PUBCHEM_COMPOUND_CID>
527168
> <PUBCHEM_COMPOUND_CANONICALIZED>
1
> <PUBCHEM_CACTVS_COMPLEXITY>
343
> <PUBCHEM_CACTVS_HBOND_ACCEPTOR>
1
> <PUBCHEM_CACTVS_HBOND_DONOR>
0
> <PUBCHEM_CACTVS_ROTATABLE_BOND>
0
> <PUBCHEM_CACTVS_SUBSKEYS>
AAADceBwIAAAAAAAAAAAAAAAAAAAAAAAAAA0SIEAAAAAAACAAAAAGgAAAAAAD0SAgAACAAAABACAACBCAAAAAAAgAAAICAAAAAgABAIAIQACEAAEgAAIIAOAwPAPgAAAAAAAAADAAAQAADAAAAAAAAAAAA==
> <PUBCHEM_IUPAC_OPENEYE_NAME>
5,6,9,9-tetramethyl-10-oxatricyclo[6.2.2.01,6]dodec-2-ene
> <PUBCHEM_IUPAC_CAS_NAME>
5,6,9,9-tetramethyl-10-oxatricyclo[6.2.2.01,6]dodec-2-ene
> <PUBCHEM_IUPAC_NAME_MARKUP>
5,6,9,9-tetramethyl-10-oxatricyclo[6.2.2.0<SUP>1,6</SUP>]dodec-2-ene
> <PUBCHEM_IUPAC_NAME>
5,6,9,9-tetramethyl-10-oxatricyclo[6.2.2.01,6]dodec-2-ene
> <PUBCHEM_IUPAC_SYSTEMATIC_NAME>
5,6,9,9-tetramethyl-10-oxatricyclo[6.2.2.01,6]dodec-2-ene
> <PUBCHEM_IUPAC_TRADITIONAL_NAME>
5,6,9,9-tetramethyl-10-oxatricyclo[6.2.2.01,6]dodec-2-ene
> <PUBCHEM_IUPAC_INCHI>
InChI=1S/C15H24O/c1-11-6-5-8-15-9-7-12(10-14(11,15)4)13(2,3)16-15/h5,8,11-12H,6-7,9-10H2,1-4H3
> <PUBCHEM_IUPAC_INCHIKEY>
JHJVISLPRJLTJT-UHFFFAOYSA-N
> <PUBCHEM_XLOGP3_AA>
3.6
> <PUBCHEM_EXACT_MASS>
220.182715385
> <PUBCHEM_MOLECULAR_FORMULA>
C15H24O
> <PUBCHEM_MOLECULAR_WEIGHT>
220.35
> <PUBCHEM_OPENEYE_CAN_SMILES>
CC1CC=CC23C1(CC(CC2)C(O3)(C)C)C
> <PUBCHEM_OPENEYE_ISO_SMILES>
CC1CC=CC23C1(CC(CC2)C(O3)(C)C)C
> <PUBCHEM_CACTVS_TPSA>
9.2
> <PUBCHEM_MONOISOTOPIC_WEIGHT>
220.182715385
> <PUBCHEM_TOTAL_CHARGE>
0
> <PUBCHEM_HEAVY_ATOM_COUNT>
16
> <PUBCHEM_ATOM_DEF_STEREO_COUNT>
0
> <PUBCHEM_ATOM_UDEF_STEREO_COUNT>
4
> <PUBCHEM_BOND_DEF_STEREO_COUNT>
0
> <PUBCHEM_BOND_UDEF_STEREO_COUNT>
0
> <PUBCHEM_ISOTOPIC_ATOM_COUNT>
0
> <PUBCHEM_COMPONENT_COUNT>
1
> <PUBCHEM_CACTVS_TAUTO_COUNT>
-1
> <PUBCHEM_COORDINATE_TYPE>
1
5
255
> <PUBCHEM_BONDANNOTATIONS>
2  10  3
3  7  3
4  9  3
8  16  3
$$$$
