527191
  -OEChem-10302200292D
 38 40  0     1  0  0  0  0  0999 V2000
    4.4453   -2.9180    0.0000 O   0  0  0  0  0  0  0  0  0  0  0  0
    4.0984   -0.2699    0.0000 C   0  0  3  0  0  0  0  0  0  0  0  0
    3.1974    0.1640    0.0000 C   0  0  3  0  0  0  0  0  0  0  0  0
    4.5984    1.9208    0.0000 C   0  0  3  0  0  0  0  0  0  0  0  0
    3.9916    0.9069    0.0000 C   0  0  0  0  0  0  0  0  0  0  0  0
    4.9994    0.1640    0.0000 C   0  0  0  0  0  0  0  0  0  0  0  0
    3.9624   -1.2546    0.0000 C   0  0  3  0  0  0  0  0  0  0  0  0
    3.5984    1.9208    0.0000 C   0  0  0  0  0  0  0  0  0  0  0  0
    5.2219    1.1389    0.0000 C   0  0  0  0  0  0  0  0  0  0  0  0
    2.9749    1.1389    0.0000 C   0  0  0  0  0  0  0  0  0  0  0  0
    2.5124   -0.5563    0.0000 C   0  0  0  0  0  0  0  0  0  0  0  0
    2.9842   -1.4312    0.0000 C   0  0  0  0  0  0  0  0  0  0  0  0
    3.6732    2.9180    0.0000 C   0  0  0  0  0  0  0  0  0  0  0  0
    2.7722    2.4841    0.0000 C   0  0  0  0  0  0  0  0  0  0  0  0
    4.6840   -1.9469    0.0000 C   0  0  0  0  0  0  0  0  0  0  0  0
    2.0000    1.3615    0.0000 C   0  0  0  0  0  0  0  0  0  0  0  0
    2.5996    0.3282    0.0000 H   0  0  0  0  0  0  0  0  0  0  0  0
    4.8674    2.4794    0.0000 H   0  0  0  0  0  0  0  0  0  0  0  0
    3.5838    1.3739    0.0000 H   0  0  0  0  0  0  0  0  0  0  0  0
    3.4215    0.6631    0.0000 H   0  0  0  0  0  0  0  0  0  0  0  0
    5.1374   -0.4404    0.0000 H   0  0  0  0  0  0  0  0  0  0  0  0
    5.6194    0.1640    0.0000 H   0  0  0  0  0  0  0  0  0  0  0  0
    3.7833   -1.8482    0.0000 H   0  0  0  0  0  0  0  0  0  0  0  0
    5.7805    0.8699    0.0000 H   0  0  0  0  0  0  0  0  0  0  0  0
    5.6085    1.6237    0.0000 H   0  0  0  0  0  0  0  0  0  0  0  0
    2.1105   -0.0841    0.0000 H   0  0  0  0  0  0  0  0  0  0  0  0
    2.0006   -0.9063    0.0000 H   0  0  0  0  0  0  0  0  0  0  0  0
    2.4105   -1.6665    0.0000 H   0  0  0  0  0  0  0  0  0  0  0  0
    3.1579   -2.0264    0.0000 H   0  0  0  0  0  0  0  0  0  0  0  0
    4.2914    2.8716    0.0000 H   0  0  0  0  0  0  0  0  0  0  0  0
    3.7195    3.5362    0.0000 H   0  0  0  0  0  0  0  0  0  0  0  0
    3.0549    2.9643    0.0000 H   0  0  0  0  0  0  0  0  0  0  0  0
    3.1214    2.9964    0.0000 H   0  0  0  0  0  0  0  0  0  0  0  0
    2.2599    2.8334    0.0000 H   0  0  0  0  0  0  0  0  0  0  0  0
    2.4229    1.9718    0.0000 H   0  0  0  0  0  0  0  0  0  0  0  0
    5.2794   -1.7741    0.0000 H   0  0  0  0  0  0  0  0  0  0  0  0
    1.8172    1.9539    0.0000 H   0  0  0  0  0  0  0  0  0  0  0  0
    1.5783    0.9070    0.0000 H   0  0  0  0  0  0  0  0  0  0  0  0
  1 15  2  0  0  0  0
  2  3  1  0  0  0  0
  2  5  1  0  0  0  0
  2  6  1  0  0  0  0
  2  7  1  0  0  0  0
  3 10  1  0  0  0  0
  3 11  1  0  0  0  0
  3 17  1  0  0  0  0
  4  5  1  0  0  0  0
  4  8  1  0  0  0  0
  4  9  1  0  0  0  0
  4 18  1  0  0  0  0
  5 19  1  0  0  0  0
  5 20  1  0  0  0  0
  6  9  1  0  0  0  0
  6 21  1  0  0  0  0
  6 22  1  0  0  0  0
  7 12  1  0  0  0  0
  7 15  1  0  0  0  0
  7 23  1  0  0  0  0
  8 10  1  0  0  0  0
  8 13  1  0  0  0  0
  8 14  1  0  0  0  0
  9 24  1  0  0  0  0
  9 25  1  0  0  0  0
 10 16  2  0  0  0  0
 11 12  1  0  0  0  0
 11 26  1  0  0  0  0
 11 27  1  0  0  0  0
 12 28  1  0  0  0  0
 12 29  1  0  0  0  0
 13 30  1  0  0  0  0
 13 31  1  0  0  0  0
 13 32  1  0  0  0  0
 14 33  1  0  0  0  0
 14 34  1  0  0  0  0
 14 35  1  0  0  0  0
 15 36  1  0  0  0  0
 16 37  1  0  0  0  0
 16 38  1  0  0  0  0
M  END
> <PUBCHEM_COMPOUND_CID>
527191
> <PUBCHEM_COMPOUND_CANONICALIZED>
1
> <PUBCHEM_CACTVS_COMPLEXITY>
354
> <PUBCHEM_CACTVS_HBOND_ACCEPTOR>
1
> <PUBCHEM_CACTVS_HBOND_DONOR>
0
> <PUBCHEM_CACTVS_ROTATABLE_BOND>
1
> <PUBCHEM_CACTVS_SUBSKEYS>
AAADceBwIAAAAAAAAAAAAAAAAAAAAYMAAAAwAAAABgAAAGDAAAAAGgAAAAAADwCggAICAAAAAACIAghSgAAAAAAgAAAAAAEAAAgAABIAAQAAAAAAgAAAAAEIiMCPgAAAAAAAAACAAAQAACAAAQAACAAAAA==
> <PUBCHEM_IUPAC_OPENEYE_NAME>
7,7-dimethyl-6-methylene-tricyclo[6.2.1.01,5]undecane-2-carbaldehyde
> <PUBCHEM_IUPAC_CAS_NAME>
7,7-dimethyl-6-methylene-2-tricyclo[6.2.1.01,5]undecanecarboxaldehyde
> <PUBCHEM_IUPAC_NAME_MARKUP>
7,7-dimethyl-6-methylidenetricyclo[6.2.1.0<SUP>1,5</SUP>]undecane-2-carbaldehyde
> <PUBCHEM_IUPAC_NAME>
7,7-dimethyl-6-methylidenetricyclo[6.2.1.01,5]undecane-2-carbaldehyde
> <PUBCHEM_IUPAC_SYSTEMATIC_NAME>
7,7-dimethyl-6-methylidene-tricyclo[6.2.1.01,5]undecane-2-carbaldehyde
> <PUBCHEM_IUPAC_TRADITIONAL_NAME>
7,7-dimethyl-6-methylene-tricyclo[6.2.1.01,5]undecane-2-carbaldehyde
> <PUBCHEM_IUPAC_INCHI>
InChI=1S/C15H22O/c1-10-13-5-4-12(9-16)15(13)7-6-11(8-15)14(10,2)3/h9,11-13H,1,4-8H2,2-3H3
> <PUBCHEM_IUPAC_INCHIKEY>
ONCLDGVLVUPPIN-UHFFFAOYSA-N
> <PUBCHEM_XLOGP3_AA>
3.6
> <PUBCHEM_EXACT_MASS>
218.167065321
> <PUBCHEM_MOLECULAR_FORMULA>
C15H22O
> <PUBCHEM_MOLECULAR_WEIGHT>
218.33
> <PUBCHEM_OPENEYE_CAN_SMILES>
CC1(C2CCC3(C2)C(CCC3C1=C)C=O)C
> <PUBCHEM_OPENEYE_ISO_SMILES>
CC1(C2CCC3(C2)C(CCC3C1=C)C=O)C
> <PUBCHEM_CACTVS_TPSA>
17.1
> <PUBCHEM_MONOISOTOPIC_WEIGHT>
218.167065321
> <PUBCHEM_TOTAL_CHARGE>
0
> <PUBCHEM_HEAVY_ATOM_COUNT>
16
> <PUBCHEM_ATOM_DEF_STEREO_COUNT>
0
> <PUBCHEM_ATOM_UDEF_STEREO_COUNT>
4
> <PUBCHEM_BOND_DEF_STEREO_COUNT>
0
> <PUBCHEM_BOND_UDEF_STEREO_COUNT>
0
> <PUBCHEM_ISOTOPIC_ATOM_COUNT>
0
> <PUBCHEM_COMPONENT_COUNT>
1
> <PUBCHEM_CACTVS_TAUTO_COUNT>
-1
> <PUBCHEM_COORDINATE_TYPE>
1
5
255
> <PUBCHEM_BONDANNOTATIONS>
2  6  3
3  11  3
4  9  3
7  15  3
$$$$
