527178
  -OEChem-10302200292D
 37 39  0     1  0  0  0  0  0999 V2000
    4.6840   -2.1314    0.0000 O   0  0  0  0  0  0  0  0  0  0  0  0
    4.0984   -0.4544    0.0000 C   0  0  3  0  0  0  0  0  0  0  0  0
    3.1974   -0.0205    0.0000 C   0  0  3  0  0  0  0  0  0  0  0  0
    4.5984    1.7363    0.0000 C   0  0  3  0  0  0  0  0  0  0  0  0
    3.9916    0.7224    0.0000 C   0  0  0  0  0  0  0  0  0  0  0  0
    4.9994   -0.0205    0.0000 C   0  0  0  0  0  0  0  0  0  0  0  0
    3.5984    1.7363    0.0000 C   0  0  0  0  0  0  0  0  0  0  0  0
    3.9624   -1.4391    0.0000 C   0  0  3  0  0  0  0  0  0  0  0  0
    5.2219    0.9544    0.0000 C   0  0  0  0  0  0  0  0  0  0  0  0
    2.9749    0.9544    0.0000 C   0  0  0  0  0  0  0  0  0  0  0  0
    2.5124   -0.7408    0.0000 C   0  0  0  0  0  0  0  0  0  0  0  0
    2.9842   -1.6158    0.0000 C   0  0  0  0  0  0  0  0  0  0  0  0
    3.6732    2.7335    0.0000 C   0  0  0  0  0  0  0  0  0  0  0  0
    2.7722    2.2996    0.0000 C   0  0  0  0  0  0  0  0  0  0  0  0
    2.0000    1.1770    0.0000 C   0  0  0  0  0  0  0  0  0  0  0  0
    2.5996    0.1437    0.0000 H   0  0  0  0  0  0  0  0  0  0  0  0
    4.8674    2.2949    0.0000 H   0  0  0  0  0  0  0  0  0  0  0  0
    3.5838    1.1894    0.0000 H   0  0  0  0  0  0  0  0  0  0  0  0
    3.4215    0.4786    0.0000 H   0  0  0  0  0  0  0  0  0  0  0  0
    5.1374   -0.6249    0.0000 H   0  0  0  0  0  0  0  0  0  0  0  0
    5.6194   -0.0205    0.0000 H   0  0  0  0  0  0  0  0  0  0  0  0
    3.7833   -2.0327    0.0000 H   0  0  0  0  0  0  0  0  0  0  0  0
    5.7805    0.6854    0.0000 H   0  0  0  0  0  0  0  0  0  0  0  0
    5.6085    1.4392    0.0000 H   0  0  0  0  0  0  0  0  0  0  0  0
    2.1105   -0.2686    0.0000 H   0  0  0  0  0  0  0  0  0  0  0  0
    2.0006   -1.0908    0.0000 H   0  0  0  0  0  0  0  0  0  0  0  0
    2.4105   -1.8510    0.0000 H   0  0  0  0  0  0  0  0  0  0  0  0
    3.1579   -2.2109    0.0000 H   0  0  0  0  0  0  0  0  0  0  0  0
    4.2914    2.6872    0.0000 H   0  0  0  0  0  0  0  0  0  0  0  0
    3.7195    3.3518    0.0000 H   0  0  0  0  0  0  0  0  0  0  0  0
    3.0549    2.7798    0.0000 H   0  0  0  0  0  0  0  0  0  0  0  0
    3.1214    2.8119    0.0000 H   0  0  0  0  0  0  0  0  0  0  0  0
    2.2599    2.6489    0.0000 H   0  0  0  0  0  0  0  0  0  0  0  0
    2.4229    1.7873    0.0000 H   0  0  0  0  0  0  0  0  0  0  0  0
    1.8172    1.7694    0.0000 H   0  0  0  0  0  0  0  0  0  0  0  0
    1.5783    0.7225    0.0000 H   0  0  0  0  0  0  0  0  0  0  0  0
    4.5360   -2.7335    0.0000 H   0  0  0  0  0  0  0  0  0  0  0  0
  1  8  1  0  0  0  0
  1 37  1  0  0  0  0
  2  3  1  0  0  0  0
  2  5  1  0  0  0  0
  2  6  1  0  0  0  0
  2  8  1  0  0  0  0
  3 10  1  0  0  0  0
  3 11  1  0  0  0  0
  3 16  1  0  0  0  0
  4  5  1  0  0  0  0
  4  7  1  0  0  0  0
  4  9  1  0  0  0  0
  4 17  1  0  0  0  0
  5 18  1  0  0  0  0
  5 19  1  0  0  0  0
  6  9  1  0  0  0  0
  6 20  1  0  0  0  0
  6 21  1  0  0  0  0
  7 10  1  0  0  0  0
  7 13  1  0  0  0  0
  7 14  1  0  0  0  0
  8 12  1  0  0  0  0
  8 22  1  0  0  0  0
  9 23  1  0  0  0  0
  9 24  1  0  0  0  0
 10 15  2  0  0  0  0
 11 12  1  0  0  0  0
 11 25  1  0  0  0  0
 11 26  1  0  0  0  0
 12 27  1  0  0  0  0
 12 28  1  0  0  0  0
 13 29  1  0  0  0  0
 13 30  1  0  0  0  0
 13 31  1  0  0  0  0
 14 32  1  0  0  0  0
 14 33  1  0  0  0  0
 14 34  1  0  0  0  0
 15 35  1  0  0  0  0
 15 36  1  0  0  0  0
M  END
> <PUBCHEM_COMPOUND_CID>
527178
> <PUBCHEM_COMPOUND_CANONICALIZED>
1
> <PUBCHEM_CACTVS_COMPLEXITY>
317
> <PUBCHEM_CACTVS_HBOND_ACCEPTOR>
1
> <PUBCHEM_CACTVS_HBOND_DONOR>
1
> <PUBCHEM_CACTVS_ROTATABLE_BOND>
0
> <PUBCHEM_CACTVS_SUBSKEYS>
AAADceBwIAAAAAAAAAAAAAAAAAAAAYMAAAAwAAAABgAAAGDAAAAAGgAACAAADxSggAICAAAAAgCAAgBCAAAAAAAgAAAAAAAAAAgAEAIAAQAAQAAEgAAAAAGAwPAPgAAAAAAAAACAAAQAACAAAYAADAAAAA==
> <PUBCHEM_IUPAC_OPENEYE_NAME>
7,7-dimethyl-6-methylene-tricyclo[6.2.1.01,5]undecan-2-ol
> <PUBCHEM_IUPAC_CAS_NAME>
7,7-dimethyl-6-methylene-2-tricyclo[6.2.1.01,5]undecanol
> <PUBCHEM_IUPAC_NAME_MARKUP>
7,7-dimethyl-6-methylidenetricyclo[6.2.1.0<SUP>1,5</SUP>]undecan-2-ol
> <PUBCHEM_IUPAC_NAME>
7,7-dimethyl-6-methylidenetricyclo[6.2.1.01,5]undecan-2-ol
> <PUBCHEM_IUPAC_SYSTEMATIC_NAME>
7,7-dimethyl-6-methylidene-tricyclo[6.2.1.01,5]undecan-2-ol
> <PUBCHEM_IUPAC_TRADITIONAL_NAME>
7,7-dimethyl-6-methylene-tricyclo[6.2.1.01,5]undecan-2-ol
> <PUBCHEM_IUPAC_INCHI>
InChI=1S/C14H22O/c1-9-11-4-5-12(15)14(11)7-6-10(8-14)13(9,2)3/h10-12,15H,1,4-8H2,2-3H3
> <PUBCHEM_IUPAC_INCHIKEY>
CXANYYGAUWHHNM-UHFFFAOYSA-N
> <PUBCHEM_XLOGP3_AA>
2.9
> <PUBCHEM_EXACT_MASS>
206.167065321
> <PUBCHEM_MOLECULAR_FORMULA>
C14H22O
> <PUBCHEM_MOLECULAR_WEIGHT>
206.32
> <PUBCHEM_OPENEYE_CAN_SMILES>
CC1(C2CCC3(C2)C(C1=C)CCC3O)C
> <PUBCHEM_OPENEYE_ISO_SMILES>
CC1(C2CCC3(C2)C(C1=C)CCC3O)C
> <PUBCHEM_CACTVS_TPSA>
20.2
> <PUBCHEM_MONOISOTOPIC_WEIGHT>
206.167065321
> <PUBCHEM_TOTAL_CHARGE>
0
> <PUBCHEM_HEAVY_ATOM_COUNT>
15
> <PUBCHEM_ATOM_DEF_STEREO_COUNT>
0
> <PUBCHEM_ATOM_UDEF_STEREO_COUNT>
4
> <PUBCHEM_BOND_DEF_STEREO_COUNT>
0
> <PUBCHEM_BOND_UDEF_STEREO_COUNT>
0
> <PUBCHEM_ISOTOPIC_ATOM_COUNT>
0
> <PUBCHEM_COMPONENT_COUNT>
1
> <PUBCHEM_CACTVS_TAUTO_COUNT>
-1
> <PUBCHEM_COORDINATE_TYPE>
1
5
255
> <PUBCHEM_BONDANNOTATIONS>
8  1  3
2  6  3
3  11  3
4  9  3
$$$$
