527197
  -OEChem-10302200292D
 40 42  0     1  0  0  0  0  0999 V2000
    2.5836   -0.0084    0.0000 O   0  0  0  0  0  0  0  0  0  0  0  0
    4.3958   -0.2037    0.0000 C   0  0  3  0  0  0  0  0  0  0  0  0
    3.5298    0.2963    0.0000 C   0  0  3  0  0  0  0  0  0  0  0  0
    3.5298    1.2963    0.0000 C   0  0  3  0  0  0  0  0  0  0  0  0
    5.2619    0.2963    0.0000 C   0  0  3  0  0  0  0  0  0  0  0  0
    4.3958    1.7963    0.0000 C   0  0  0  0  0  0  0  0  0  0  0  0
    2.5836    1.6010    0.0000 C   0  0  3  0  0  0  0  0  0  0  0  0
    5.2619    1.2963    0.0000 C   0  0  0  0  0  0  0  0  0  0  0  0
    3.5868   -0.7915    0.0000 C   0  0  0  0  0  0  0  0  0  0  0  0
    5.2049   -0.7915    0.0000 C   0  0  0  0  0  0  0  0  0  0  0  0
    2.0000    0.7963    0.0000 C   0  0  0  0  0  0  0  0  0  0  0  0
    3.8958   -1.7425    0.0000 C   0  0  0  0  0  0  0  0  0  0  0  0
    4.8958   -1.7425    0.0000 C   0  0  0  0  0  0  0  0  0  0  0  0
    6.1279   -0.2037    0.0000 C   0  0  0  0  0  0  0  0  0  0  0  0
    2.2729    2.5516    0.0000 C   0  0  0  0  0  0  0  0  0  0  0  0
    5.4836   -2.5516    0.0000 C   0  0  0  0  0  0  0  0  0  0  0  0
    3.4642   -0.3202    0.0000 H   0  0  0  0  0  0  0  0  0  0  0  0
    3.4642    1.9128    0.0000 H   0  0  0  0  0  0  0  0  0  0  0  0
    5.7988    0.6063    0.0000 H   0  0  0  0  0  0  0  0  0  0  0  0
    4.7944    2.2713    0.0000 H   0  0  0  0  0  0  0  0  0  0  0  0
    3.9973    2.2713    0.0000 H   0  0  0  0  0  0  0  0  0  0  0  0
    3.0211    2.0404    0.0000 H   0  0  0  0  0  0  0  0  0  0  0  0
    5.8725    1.1886    0.0000 H   0  0  0  0  0  0  0  0  0  0  0  0
    5.4739    1.8789    0.0000 H   0  0  0  0  0  0  0  0  0  0  0  0
    3.2768   -0.2545    0.0000 H   0  0  0  0  0  0  0  0  0  0  0  0
    3.0204   -1.0437    0.0000 H   0  0  0  0  0  0  0  0  0  0  0  0
    5.7945   -0.5999    0.0000 H   0  0  0  0  0  0  0  0  0  0  0  0
    1.5391    1.2110    0.0000 H   0  0  0  0  0  0  0  0  0  0  0  0
    1.5391    0.3816    0.0000 H   0  0  0  0  0  0  0  0  0  0  0  0
    3.2894   -1.8714    0.0000 H   0  0  0  0  0  0  0  0  0  0  0  0
    3.9607   -2.3591    0.0000 H   0  0  0  0  0  0  0  0  0  0  0  0
    5.8179   -0.7406    0.0000 H   0  0  0  0  0  0  0  0  0  0  0  0
    6.6648   -0.5137    0.0000 H   0  0  0  0  0  0  0  0  0  0  0  0
    6.4379    0.3332    0.0000 H   0  0  0  0  0  0  0  0  0  0  0  0
    2.8623    2.7442    0.0000 H   0  0  0  0  0  0  0  0  0  0  0  0
    2.0803    3.1409    0.0000 H   0  0  0  0  0  0  0  0  0  0  0  0
    1.6836    2.3589    0.0000 H   0  0  0  0  0  0  0  0  0  0  0  0
    4.9820   -2.9160    0.0000 H   0  0  0  0  0  0  0  0  0  0  0  0
    5.8481   -3.0532    0.0000 H   0  0  0  0  0  0  0  0  0  0  0  0
    5.9852   -2.1871    0.0000 H   0  0  0  0  0  0  0  0  0  0  0  0
  1  3  1  0  0  0  0
  1 11  1  0  0  0  0
  2  3  1  0  0  0  0
  2  5  1  0  0  0  0
  2  9  1  0  0  0  0
  2 10  1  0  0  0  0
  3  4  1  0  0  0  0
  3 17  1  0  0  0  0
  4  6  1  0  0  0  0
  4  7  1  0  0  0  0
  4 18  1  0  0  0  0
  5  8  1  0  0  0  0
  5 14  1  0  0  0  0
  5 19  1  0  0  0  0
  6  8  1  0  0  0  0
  6 20  1  0  0  0  0
  6 21  1  0  0  0  0
  7 11  1  0  0  0  0
  7 15  1  0  0  0  0
  7 22  1  0  0  0  0
  8 23  1  0  0  0  0
  8 24  1  0  0  0  0
  9 12  1  0  0  0  0
  9 25  1  0  0  0  0
  9 26  1  0  0  0  0
 10 13  2  0  0  0  0
 10 27  1  0  0  0  0
 11 28  1  0  0  0  0
 11 29  1  0  0  0  0
 12 13  1  0  0  0  0
 12 30  1  0  0  0  0
 12 31  1  0  0  0  0
 13 16  1  0  0  0  0
 14 32  1  0  0  0  0
 14 33  1  0  0  0  0
 14 34  1  0  0  0  0
 15 35  1  0  0  0  0
 15 36  1  0  0  0  0
 15 37  1  0  0  0  0
 16 38  1  0  0  0  0
 16 39  1  0  0  0  0
 16 40  1  0  0  0  0
M  END
> <PUBCHEM_COMPOUND_CID>
527197
> <PUBCHEM_COMPOUND_CANONICALIZED>
1
> <PUBCHEM_CACTVS_COMPLEXITY>
319
> <PUBCHEM_CACTVS_HBOND_ACCEPTOR>
1
> <PUBCHEM_CACTVS_HBOND_DONOR>
0
> <PUBCHEM_CACTVS_ROTATABLE_BOND>
0
> <PUBCHEM_CACTVS_SUBSKEYS>
AAADceBwIAAAAAAAAAAAAAAAAAAAASIAAAAwAAAAAAAAAEgAAAAAGgAAAAAADxSggAICAAAABACAAiBCAAAAAAAgAAAACAAAAAgAAAIAAQACAAAEwAAIAAOAwPAPgAAAAAAAAACAAAYAADAAAAAAAAAAAA==
> <PUBCHEM_IUPAC_OPENEYE_NAME>
1',3,6-trimethylspiro[3,3a,4,5,6,7a-hexahydro-2H-benzofuran-7,3'-cyclopentene]
> <PUBCHEM_IUPAC_CAS_NAME>
1',3,6-trimethylspiro[3,3a,4,5,6,7a-hexahydro-2H-benzofuran-7,3'-cyclopentene]
> <PUBCHEM_IUPAC_NAME_MARKUP>
1&apos;,3,6-trimethylspiro[3,3<I>a</I>,4,5,6,7<I>a</I>-hexahydro-2<I>H</I>-1-benzofuran-7,3&apos;-cyclopentene]
> <PUBCHEM_IUPAC_NAME>
1',3,6-trimethylspiro[3,3a,4,5,6,7a-hexahydro-2H-1-benzofuran-7,3'-cyclopentene]
> <PUBCHEM_IUPAC_SYSTEMATIC_NAME>
1',3,6-trimethylspiro[3,3a,4,5,6,7a-hexahydro-2H-1-benzofuran-7,3'-cyclopentene]
> <PUBCHEM_IUPAC_TRADITIONAL_NAME>
1',3,6-trimethylspiro[3,3a,4,5,6,7a-hexahydro-2H-benzofuran-7,3'-cyclopentene]
> <PUBCHEM_IUPAC_INCHI>
InChI=1S/C15H24O/c1-10-6-7-15(8-10)12(3)4-5-13-11(2)9-16-14(13)15/h8,11-14H,4-7,9H2,1-3H3
> <PUBCHEM_IUPAC_INCHIKEY>
HEQABJJODXEQEX-UHFFFAOYSA-N
> <PUBCHEM_XLOGP3_AA>
3.7
> <PUBCHEM_EXACT_MASS>
220.182715385
> <PUBCHEM_MOLECULAR_FORMULA>
C15H24O
> <PUBCHEM_MOLECULAR_WEIGHT>
220.35
> <PUBCHEM_OPENEYE_CAN_SMILES>
CC1CCC2C(COC2C13CCC(=C3)C)C
> <PUBCHEM_OPENEYE_ISO_SMILES>
CC1CCC2C(COC2C13CCC(=C3)C)C
> <PUBCHEM_CACTVS_TPSA>
9.2
> <PUBCHEM_MONOISOTOPIC_WEIGHT>
220.182715385
> <PUBCHEM_TOTAL_CHARGE>
0
> <PUBCHEM_HEAVY_ATOM_COUNT>
16
> <PUBCHEM_ATOM_DEF_STEREO_COUNT>
0
> <PUBCHEM_ATOM_UDEF_STEREO_COUNT>
5
> <PUBCHEM_BOND_DEF_STEREO_COUNT>
0
> <PUBCHEM_BOND_UDEF_STEREO_COUNT>
0
> <PUBCHEM_ISOTOPIC_ATOM_COUNT>
0
> <PUBCHEM_COMPONENT_COUNT>
1
> <PUBCHEM_CACTVS_TAUTO_COUNT>
-1
> <PUBCHEM_COORDINATE_TYPE>
1
5
255
> <PUBCHEM_BONDANNOTATIONS>
3  1  3
2  9  3
4  6  3
5  14  3
7  15  3
$$$$
