527174
  -OEChem-10302200292D
 31 32  0     1  0  0  0  0  0999 V2000
    2.0000   -0.5000    0.0000 O   0  0  0  0  0  0  0  0  0  0  0  0
    4.5981   -0.0000    0.0000 C   0  0  3  0  0  0  0  0  0  0  0  0
    5.4920   -0.5347    0.0000 C   0  0  3  0  0  0  0  0  0  0  0  0
    4.5981    1.0000    0.0000 C   0  0  0  0  0  0  0  0  0  0  0  0
    3.7320   -0.5000    0.0000 C   0  0  0  0  0  0  0  0  0  0  0  0
    6.3981   -0.0208    0.0000 C   0  0  0  0  0  0  0  0  0  0  0  0
    3.7320    1.5000    0.0000 C   0  0  0  0  0  0  0  0  0  0  0  0
    4.5981   -1.0000    0.0000 C   0  0  0  0  0  0  0  0  0  0  0  0
    6.3981    1.0208    0.0000 C   0  0  0  0  0  0  0  0  0  0  0  0
    5.4920    1.5346    0.0000 C   0  0  0  0  0  0  0  0  0  0  0  0
    2.8660    1.0000    0.0000 C   0  0  0  0  0  0  0  0  0  0  0  0
    5.4804   -1.5346    0.0000 C   0  0  0  0  0  0  0  0  0  0  0  0
    2.8660   -0.0000    0.0000 C   0  0  0  0  0  0  0  0  0  0  0  0
    6.0259   -0.8499    0.0000 H   0  0  0  0  0  0  0  0  0  0  0  0
    3.3335   -0.9750    0.0000 H   0  0  0  0  0  0  0  0  0  0  0  0
    4.1306   -0.9750    0.0000 H   0  0  0  0  0  0  0  0  0  0  0  0
    6.6071   -0.6045    0.0000 H   0  0  0  0  0  0  0  0  0  0  0  0
    7.0089    0.0852    0.0000 H   0  0  0  0  0  0  0  0  0  0  0  0
    4.1306    1.9749    0.0000 H   0  0  0  0  0  0  0  0  0  0  0  0
    3.3335    1.9749    0.0000 H   0  0  0  0  0  0  0  0  0  0  0  0
    3.9781   -1.0000    0.0000 H   0  0  0  0  0  0  0  0  0  0  0  0
    4.5981   -1.6200    0.0000 H   0  0  0  0  0  0  0  0  0  0  0  0
    5.2181   -1.0000    0.0000 H   0  0  0  0  0  0  0  0  0  0  0  0
    7.0089    0.9147    0.0000 H   0  0  0  0  0  0  0  0  0  0  0  0
    6.6071    1.6045    0.0000 H   0  0  0  0  0  0  0  0  0  0  0  0
    5.4848    2.1546    0.0000 H   0  0  0  0  0  0  0  0  0  0  0  0
    2.6540    1.5826    0.0000 H   0  0  0  0  0  0  0  0  0  0  0  0
    2.2554    0.8923    0.0000 H   0  0  0  0  0  0  0  0  0  0  0  0
    4.8605   -1.5275    0.0000 H   0  0  0  0  0  0  0  0  0  0  0  0
    5.4733   -2.1546    0.0000 H   0  0  0  0  0  0  0  0  0  0  0  0
    6.1004   -1.5418    0.0000 H   0  0  0  0  0  0  0  0  0  0  0  0
  1 13  2  0  0  0  0
  2  3  1  0  0  0  0
  2  4  1  0  0  0  0
  2  5  1  0  0  0  0
  2  8  1  0  0  0  0
  3  6  1  0  0  0  0
  3 12  1  0  0  0  0
  3 14  1  0  0  0  0
  4  7  1  0  0  0  0
  4 10  2  0  0  0  0
  5 13  1  0  0  0  0
  5 15  1  0  0  0  0
  5 16  1  0  0  0  0
  6  9  1  0  0  0  0
  6 17  1  0  0  0  0
  6 18  1  0  0  0  0
  7 11  1  0  0  0  0
  7 19  1  0  0  0  0
  7 20  1  0  0  0  0
  8 21  1  0  0  0  0
  8 22  1  0  0  0  0
  8 23  1  0  0  0  0
  9 10  1  0  0  0  0
  9 24  1  0  0  0  0
  9 25  1  0  0  0  0
 10 26  1  0  0  0  0
 11 13  1  0  0  0  0
 11 27  1  0  0  0  0
 11 28  1  0  0  0  0
 12 29  1  0  0  0  0
 12 30  1  0  0  0  0
 12 31  1  0  0  0  0
M  END
> <PUBCHEM_COMPOUND_CID>
527174
> <PUBCHEM_COMPOUND_CANONICALIZED>
1
> <PUBCHEM_CACTVS_COMPLEXITY>
264
> <PUBCHEM_CACTVS_HBOND_ACCEPTOR>
1
> <PUBCHEM_CACTVS_HBOND_DONOR>
0
> <PUBCHEM_CACTVS_ROTATABLE_BOND>
0
> <PUBCHEM_CACTVS_SUBSKEYS>
AAADceBwIAAAAAAAAAAAAAAAAAAAAAAAAAAwQAAAAAAAAACAAAAAGgAAAAAADwSAgAACAAAAAACIAqBSAAAAAAAgAAAACAEAAAgAABIAAQAAAAAAgAAIAAMIiMCPgAAAAAAAAAAAAAAAAAAAAAAAAAAAAA==
> <PUBCHEM_IUPAC_OPENEYE_NAME>
8,8a-dimethyl-1,3,4,6,7,8-hexahydronaphthalen-2-one
> <PUBCHEM_IUPAC_CAS_NAME>
8,8a-dimethyl-1,3,4,6,7,8-hexahydronaphthalen-2-one
> <PUBCHEM_IUPAC_NAME_MARKUP>
8,8<I>a</I>-dimethyl-1,3,4,6,7,8-hexahydronaphthalen-2-one
> <PUBCHEM_IUPAC_NAME>
8,8a-dimethyl-1,3,4,6,7,8-hexahydronaphthalen-2-one
> <PUBCHEM_IUPAC_SYSTEMATIC_NAME>
8,8a-dimethyl-1,3,4,6,7,8-hexahydronaphthalen-2-one
> <PUBCHEM_IUPAC_TRADITIONAL_NAME>
8,8a-dimethyl-1,3,4,6,7,8-hexahydronaphthalen-2-one
> <PUBCHEM_IUPAC_INCHI>
InChI=1S/C12H18O/c1-9-4-3-5-10-6-7-11(13)8-12(9,10)2/h5,9H,3-4,6-8H2,1-2H3
> <PUBCHEM_IUPAC_INCHIKEY>
RKKGFWOMSDLRQL-UHFFFAOYSA-N
> <PUBCHEM_XLOGP3_AA>
2.3
> <PUBCHEM_EXACT_MASS>
178.135765193
> <PUBCHEM_MOLECULAR_FORMULA>
C12H18O
> <PUBCHEM_MOLECULAR_WEIGHT>
178.27
> <PUBCHEM_OPENEYE_CAN_SMILES>
CC1CCC=C2C1(CC(=O)CC2)C
> <PUBCHEM_OPENEYE_ISO_SMILES>
CC1CCC=C2C1(CC(=O)CC2)C
> <PUBCHEM_CACTVS_TPSA>
17.1
> <PUBCHEM_MONOISOTOPIC_WEIGHT>
178.135765193
> <PUBCHEM_TOTAL_CHARGE>
0
> <PUBCHEM_HEAVY_ATOM_COUNT>
13
> <PUBCHEM_ATOM_DEF_STEREO_COUNT>
0
> <PUBCHEM_ATOM_UDEF_STEREO_COUNT>
2
> <PUBCHEM_BOND_DEF_STEREO_COUNT>
0
> <PUBCHEM_BOND_UDEF_STEREO_COUNT>
0
> <PUBCHEM_ISOTOPIC_ATOM_COUNT>
0
> <PUBCHEM_COMPONENT_COUNT>
1
> <PUBCHEM_CACTVS_TAUTO_COUNT>
-1
> <PUBCHEM_COORDINATE_TYPE>
1
5
255
> <PUBCHEM_BONDANNOTATIONS>
2  8  3
3  12  3
$$$$
