527237
  -OEChem-10302200292D
 42 44  0     1  0  0  0  0  0999 V2000
    3.6538    2.2979    0.0000 O   0  0  0  0  0  0  0  0  0  0  0  0
    4.0791   -0.8899    0.0000 C   0  0  3  0  0  0  0  0  0  0  0  0
    3.1781   -0.4560    0.0000 C   0  0  3  0  0  0  0  0  0  0  0  0
    2.9556    0.5189    0.0000 C   0  0  0  0  0  0  0  0  0  0  0  0
    4.5791    1.3007    0.0000 C   0  0  3  0  0  0  0  0  0  0  0  0
    3.9722    0.2869    0.0000 C   0  0  0  0  0  0  0  0  0  0  0  0
    3.5791    1.3007    0.0000 C   0  0  3  0  0  0  0  0  0  0  0  0
    3.9431   -1.8746    0.0000 C   0  0  3  0  0  0  0  0  0  0  0  0
    4.9800   -0.4560    0.0000 C   0  0  0  0  0  0  0  0  0  0  0  0
    5.2025    0.5189    0.0000 C   0  0  0  0  0  0  0  0  0  0  0  0
    2.4930   -1.1763    0.0000 C   0  0  0  0  0  0  0  0  0  0  0  0
    2.9648   -2.0513    0.0000 C   0  0  0  0  0  0  0  0  0  0  0  0
    2.2225    1.1991    0.0000 C   0  0  0  0  0  0  0  0  0  0  0  0
    2.0000    0.2242    0.0000 C   0  0  0  0  0  0  0  0  0  0  0  0
    2.7528    1.8641    0.0000 C   0  0  0  0  0  0  0  0  0  0  0  0
    4.6647   -2.5670    0.0000 C   0  0  0  0  0  0  0  0  0  0  0  0
    2.5802   -0.2919    0.0000 H   0  0  0  0  0  0  0  0  0  0  0  0
    4.8481    1.8593    0.0000 H   0  0  0  0  0  0  0  0  0  0  0  0
    3.5644    0.7539    0.0000 H   0  0  0  0  0  0  0  0  0  0  0  0
    3.4022    0.0430    0.0000 H   0  0  0  0  0  0  0  0  0  0  0  0
    3.7640   -2.4682    0.0000 H   0  0  0  0  0  0  0  0  0  0  0  0
    5.1180   -1.0605    0.0000 H   0  0  0  0  0  0  0  0  0  0  0  0
    5.6000   -0.4560    0.0000 H   0  0  0  0  0  0  0  0  0  0  0  0
    5.7612    0.2499    0.0000 H   0  0  0  0  0  0  0  0  0  0  0  0
    5.5891    1.0036    0.0000 H   0  0  0  0  0  0  0  0  0  0  0  0
    2.0911   -0.7042    0.0000 H   0  0  0  0  0  0  0  0  0  0  0  0
    1.9812   -1.5263    0.0000 H   0  0  0  0  0  0  0  0  0  0  0  0
    2.3912   -2.2866    0.0000 H   0  0  0  0  0  0  0  0  0  0  0  0
    3.1385   -2.6465    0.0000 H   0  0  0  0  0  0  0  0  0  0  0  0
    2.6442    1.6536    0.0000 H   0  0  0  0  0  0  0  0  0  0  0  0
    1.7680    1.6208    0.0000 H   0  0  0  0  0  0  0  0  0  0  0  0
    1.8008    0.7446    0.0000 H   0  0  0  0  0  0  0  0  0  0  0  0
    1.8172    0.8166    0.0000 H   0  0  0  0  0  0  0  0  0  0  0  0
    1.4075    0.0414    0.0000 H   0  0  0  0  0  0  0  0  0  0  0  0
    2.1828   -0.3683    0.0000 H   0  0  0  0  0  0  0  0  0  0  0  0
    3.1021    2.3763    0.0000 H   0  0  0  0  0  0  0  0  0  0  0  0
    2.2406    2.2133    0.0000 H   0  0  0  0  0  0  0  0  0  0  0  0
    2.4036    1.3518    0.0000 H   0  0  0  0  0  0  0  0  0  0  0  0
    4.2354   -3.0143    0.0000 H   0  0  0  0  0  0  0  0  0  0  0  0
    5.1121   -2.9962    0.0000 H   0  0  0  0  0  0  0  0  0  0  0  0
    5.0939   -2.1196    0.0000 H   0  0  0  0  0  0  0  0  0  0  0  0
    4.2124    2.5670    0.0000 H   0  0  0  0  0  0  0  0  0  0  0  0
  1  7  1  0  0  0  0
  1 42  1  0  0  0  0
  2  3  1  0  0  0  0
  2  6  1  0  0  0  0
  2  8  1  0  0  0  0
  2  9  1  0  0  0  0
  3  4  1  0  0  0  0
  3 11  1  0  0  0  0
  3 17  1  0  0  0  0
  4  7  1  0  0  0  0
  4 13  1  0  0  0  0
  4 14  1  0  0  0  0
  5  6  1  0  0  0  0
  5  7  1  0  0  0  0
  5 10  1  0  0  0  0
  5 18  1  0  0  0  0
  6 19  1  0  0  0  0
  6 20  1  0  0  0  0
  7 15  1  0  0  0  0
  8 12  1  0  0  0  0
  8 16  1  0  0  0  0
  8 21  1  0  0  0  0
  9 10  1  0  0  0  0
  9 22  1  0  0  0  0
  9 23  1  0  0  0  0
 10 24  1  0  0  0  0
 10 25  1  0  0  0  0
 11 12  1  0  0  0  0
 11 26  1  0  0  0  0
 11 27  1  0  0  0  0
 12 28  1  0  0  0  0
 12 29  1  0  0  0  0
 13 30  1  0  0  0  0
 13 31  1  0  0  0  0
 13 32  1  0  0  0  0
 14 33  1  0  0  0  0
 14 34  1  0  0  0  0
 14 35  1  0  0  0  0
 15 36  1  0  0  0  0
 15 37  1  0  0  0  0
 15 38  1  0  0  0  0
 16 39  1  0  0  0  0
 16 40  1  0  0  0  0
 16 41  1  0  0  0  0
M  END
> <PUBCHEM_COMPOUND_CID>
527237
> <PUBCHEM_COMPOUND_CANONICALIZED>
1
> <PUBCHEM_CACTVS_COMPLEXITY>
321
> <PUBCHEM_CACTVS_HBOND_ACCEPTOR>
1
> <PUBCHEM_CACTVS_HBOND_DONOR>
1
> <PUBCHEM_CACTVS_ROTATABLE_BOND>
0
> <PUBCHEM_CACTVS_SUBSKEYS>
AAADceBwIAAAAAAAAAAAAAAAAAAAAYMAAAAwAAAABgAAAGDAAAAAGgAACAAAD0SAgAACAAAAAgAAAAAAAAAAAAAAAAAAAAAAAAAAAAIAAAAAQAAEAAAAAAGAwPAPgAAAAAAAAADAAAYAADAAAQAACAAAAA==
> <PUBCHEM_IUPAC_OPENEYE_NAME>
2,6,6,7-tetramethyltricyclo[6.2.1.01,5]undecan-7-ol
> <PUBCHEM_IUPAC_CAS_NAME>
2,6,6,7-tetramethyl-7-tricyclo[6.2.1.01,5]undecanol
> <PUBCHEM_IUPAC_NAME_MARKUP>
2,6,6,7-tetramethyltricyclo[6.2.1.0<SUP>1,5</SUP>]undecan-7-ol
> <PUBCHEM_IUPAC_NAME>
2,6,6,7-tetramethyltricyclo[6.2.1.01,5]undecan-7-ol
> <PUBCHEM_IUPAC_SYSTEMATIC_NAME>
2,6,6,7-tetramethyltricyclo[6.2.1.01,5]undecan-7-ol
> <PUBCHEM_IUPAC_TRADITIONAL_NAME>
2,6,6,7-tetramethyltricyclo[6.2.1.01,5]undecan-7-ol
> <PUBCHEM_IUPAC_INCHI>
InChI=1S/C15H26O/c1-10-5-6-12-13(2,3)14(4,16)11-7-8-15(10,12)9-11/h10-12,16H,5-9H2,1-4H3
> <PUBCHEM_IUPAC_INCHIKEY>
IJVXAOHQRPSJDV-UHFFFAOYSA-N
> <PUBCHEM_XLOGP3_AA>
4.1
> <PUBCHEM_EXACT_MASS>
222.198365449
> <PUBCHEM_MOLECULAR_FORMULA>
C15H26O
> <PUBCHEM_MOLECULAR_WEIGHT>
222.37
> <PUBCHEM_OPENEYE_CAN_SMILES>
CC1CCC2C13CCC(C3)C(C2(C)C)(C)O
> <PUBCHEM_OPENEYE_ISO_SMILES>
CC1CCC2C13CCC(C3)C(C2(C)C)(C)O
> <PUBCHEM_CACTVS_TPSA>
20.2
> <PUBCHEM_MONOISOTOPIC_WEIGHT>
222.198365449
> <PUBCHEM_TOTAL_CHARGE>
0
> <PUBCHEM_HEAVY_ATOM_COUNT>
16
> <PUBCHEM_ATOM_DEF_STEREO_COUNT>
0
> <PUBCHEM_ATOM_UDEF_STEREO_COUNT>
5
> <PUBCHEM_BOND_DEF_STEREO_COUNT>
0
> <PUBCHEM_BOND_UDEF_STEREO_COUNT>
0
> <PUBCHEM_ISOTOPIC_ATOM_COUNT>
0
> <PUBCHEM_COMPONENT_COUNT>
1
> <PUBCHEM_CACTVS_TAUTO_COUNT>
-1
> <PUBCHEM_COORDINATE_TYPE>
1
5
255
> <PUBCHEM_BONDANNOTATIONS>
7  1  3
2  9  3
3  11  3
5  10  3
8  16  3
$$$$
