527228
  -OEChem-10302200292D
 40 42  0     1  0  0  0  0  0999 V2000
    3.0434    1.6644    0.0000 O   0  0  0  0  0  0  0  0  0  0  0  0
    3.8660   -0.6419    0.0000 C   0  0  3  0  0  0  0  0  0  0  0  0
    3.0000   -0.1419    0.0000 C   0  0  3  0  0  0  0  0  0  0  0  0
    3.0000    0.8581    0.0000 C   0  0  0  0  0  0  0  0  0  0  0  0
    3.8660    1.3581    0.0000 C   0  0  3  0  0  0  0  0  0  0  0  0
    3.6568   -1.6138    0.0000 C   0  0  3  0  0  0  0  0  0  0  0  0
    4.7320   -0.1419    0.0000 C   0  0  0  0  0  0  0  0  0  0  0  0
    3.4660   -0.0419    0.0000 C   0  0  0  0  0  0  0  0  0  0  0  0
    2.2630   -0.8090    0.0000 C   0  0  0  0  0  0  0  0  0  0  0  0
    4.7320    0.8581    0.0000 C   0  0  0  0  0  0  0  0  0  0  0  0
    2.6681   -1.7168    0.0000 C   0  0  0  0  0  0  0  0  0  0  0  0
    3.4660    0.7581    0.0000 C   0  0  0  0  0  0  0  0  0  0  0  0
    2.2340    1.5008    0.0000 C   0  0  0  0  0  0  0  0  0  0  0  0
    2.0000    0.8581    0.0000 C   0  0  0  0  0  0  0  0  0  0  0  0
    3.8660    2.3581    0.0000 C   0  0  0  0  0  0  0  0  0  0  0  0
    4.3247   -2.3581    0.0000 C   0  0  0  0  0  0  0  0  0  0  0  0
    2.4333    0.1095    0.0000 H   0  0  0  0  0  0  0  0  0  0  0  0
    4.2560   -1.4546    0.0000 H   0  0  0  0  0  0  0  0  0  0  0  0
    4.9441   -0.7246    0.0000 H   0  0  0  0  0  0  0  0  0  0  0  0
    5.3426   -0.0343    0.0000 H   0  0  0  0  0  0  0  0  0  0  0  0
    2.8790    0.1576    0.0000 H   0  0  0  0  0  0  0  0  0  0  0  0
    4.0594    0.1377    0.0000 H   0  0  0  0  0  0  0  0  0  0  0  0
    1.8976   -0.3082    0.0000 H   0  0  0  0  0  0  0  0  0  0  0  0
    1.7265   -1.1198    0.0000 H   0  0  0  0  0  0  0  0  0  0  0  0
    5.3426    0.7504    0.0000 H   0  0  0  0  0  0  0  0  0  0  0  0
    4.9441    1.4407    0.0000 H   0  0  0  0  0  0  0  0  0  0  0  0
    2.0785   -1.9086    0.0000 H   0  0  0  0  0  0  0  0  0  0  0  0
    2.7968   -2.3233    0.0000 H   0  0  0  0  0  0  0  0  0  0  0  0
    2.6325    1.9758    0.0000 H   0  0  0  0  0  0  0  0  0  0  0  0
    1.7590    1.8994    0.0000 H   0  0  0  0  0  0  0  0  0  0  0  0
    1.8354    1.0259    0.0000 H   0  0  0  0  0  0  0  0  0  0  0  0
    2.0000    1.4781    0.0000 H   0  0  0  0  0  0  0  0  0  0  0  0
    1.3800    0.8581    0.0000 H   0  0  0  0  0  0  0  0  0  0  0  0
    2.0000    0.2381    0.0000 H   0  0  0  0  0  0  0  0  0  0  0  0
    4.4860    2.3581    0.0000 H   0  0  0  0  0  0  0  0  0  0  0  0
    3.8660    2.9781    0.0000 H   0  0  0  0  0  0  0  0  0  0  0  0
    3.2460    2.3581    0.0000 H   0  0  0  0  0  0  0  0  0  0  0  0
    3.8632   -2.7721    0.0000 H   0  0  0  0  0  0  0  0  0  0  0  0
    4.7387   -2.8195    0.0000 H   0  0  0  0  0  0  0  0  0  0  0  0
    4.7861   -1.9440    0.0000 H   0  0  0  0  0  0  0  0  0  0  0  0
  1 12  2  0  0  0  0
  2  3  1  0  0  0  0
  2  6  1  0  0  0  0
  2  7  1  0  0  0  0
  2  8  1  0  0  0  0
  3  4  1  0  0  0  0
  3  9  1  0  0  0  0
  3 17  1  0  0  0  0
  4  5  1  0  0  0  0
  4 13  1  0  0  0  0
  4 14  1  0  0  0  0
  5 10  1  0  0  0  0
  5 12  1  0  0  0  0
  5 15  1  0  0  0  0
  6 11  1  0  0  0  0
  6 16  1  0  0  0  0
  6 18  1  0  0  0  0
  7 10  1  0  0  0  0
  7 19  1  0  0  0  0
  7 20  1  0  0  0  0
  8 12  1  0  0  0  0
  8 21  1  0  0  0  0
  8 22  1  0  0  0  0
  9 11  1  0  0  0  0
  9 23  1  0  0  0  0
  9 24  1  0  0  0  0
 10 25  1  0  0  0  0
 10 26  1  0  0  0  0
 11 27  1  0  0  0  0
 11 28  1  0  0  0  0
 13 29  1  0  0  0  0
 13 30  1  0  0  0  0
 13 31  1  0  0  0  0
 14 32  1  0  0  0  0
 14 33  1  0  0  0  0
 14 34  1  0  0  0  0
 15 35  1  0  0  0  0
 15 36  1  0  0  0  0
 15 37  1  0  0  0  0
 16 38  1  0  0  0  0
 16 39  1  0  0  0  0
 16 40  1  0  0  0  0
M  END
> <PUBCHEM_COMPOUND_CID>
527228
> <PUBCHEM_COMPOUND_CANONICALIZED>
1
> <PUBCHEM_CACTVS_COMPLEXITY>
356
> <PUBCHEM_CACTVS_HBOND_ACCEPTOR>
1
> <PUBCHEM_CACTVS_HBOND_DONOR>
0
> <PUBCHEM_CACTVS_ROTATABLE_BOND>
0
> <PUBCHEM_CACTVS_SUBSKEYS>
AAADceBwIAAAAAAAAAAAAAAAAAAAAYAAAAAwYMAAAAAAAGAAAAAAGgAAAAAADwSAgAACAAAAAAAIAIAQAAAAAAAAAAAAAAEAAAAAABIAAAAAAAAAAAAAAAEIiMCPgAAAAAAAAACAAAQAACAAAQAACAAAAA==
> <PUBCHEM_IUPAC_OPENEYE_NAME>
2,6,6,7-tetramethyltricyclo[5.2.2.01,5]undecan-8-one
> <PUBCHEM_IUPAC_CAS_NAME>
2,6,6,7-tetramethyl-8-tricyclo[5.2.2.01,5]undecanone
> <PUBCHEM_IUPAC_NAME_MARKUP>
2,6,6,7-tetramethyltricyclo[5.2.2.0<SUP>1,5</SUP>]undecan-8-one
> <PUBCHEM_IUPAC_NAME>
2,6,6,7-tetramethyltricyclo[5.2.2.01,5]undecan-8-one
> <PUBCHEM_IUPAC_SYSTEMATIC_NAME>
2,6,6,7-tetramethyltricyclo[5.2.2.01,5]undecan-8-one
> <PUBCHEM_IUPAC_TRADITIONAL_NAME>
2,6,6,7-tetramethyltricyclo[5.2.2.01,5]undecan-8-one
> <PUBCHEM_IUPAC_INCHI>
InChI=1S/C15H24O/c1-10-5-6-11-13(2,3)14(4)7-8-15(10,11)9-12(14)16/h10-11H,5-9H2,1-4H3
> <PUBCHEM_IUPAC_INCHIKEY>
UHZYAHDPWSUMQZ-UHFFFAOYSA-N
> <PUBCHEM_XLOGP3_AA>
4
> <PUBCHEM_EXACT_MASS>
220.182715385
> <PUBCHEM_MOLECULAR_FORMULA>
C15H24O
> <PUBCHEM_MOLECULAR_WEIGHT>
220.35
> <PUBCHEM_OPENEYE_CAN_SMILES>
CC1CCC2C13CCC(C2(C)C)(C(=O)C3)C
> <PUBCHEM_OPENEYE_ISO_SMILES>
CC1CCC2C13CCC(C2(C)C)(C(=O)C3)C
> <PUBCHEM_CACTVS_TPSA>
17.1
> <PUBCHEM_MONOISOTOPIC_WEIGHT>
220.182715385
> <PUBCHEM_TOTAL_CHARGE>
0
> <PUBCHEM_HEAVY_ATOM_COUNT>
16
> <PUBCHEM_ATOM_DEF_STEREO_COUNT>
0
> <PUBCHEM_ATOM_UDEF_STEREO_COUNT>
4
> <PUBCHEM_BOND_DEF_STEREO_COUNT>
0
> <PUBCHEM_BOND_UDEF_STEREO_COUNT>
0
> <PUBCHEM_ISOTOPIC_ATOM_COUNT>
0
> <PUBCHEM_COMPONENT_COUNT>
1
> <PUBCHEM_CACTVS_TAUTO_COUNT>
-1
> <PUBCHEM_COORDINATE_TYPE>
1
5
255
> <PUBCHEM_BONDANNOTATIONS>
2  7  3
3  9  3
5  15  3
6  16  3
$$$$
