527221
  -OEChem-10302200292D
 40 41  0     1  0  0  0  0  0999 V2000
    6.3465   -1.8765    0.0000 O   0  0  0  0  0  0  0  0  0  0  0  0
    5.4641   -0.3419    0.0000 C   0  0  3  0  0  0  0  0  0  0  0  0
    4.5981   -0.8419    0.0000 C   0  0  0  0  0  0  0  0  0  0  0  0
    3.7320    0.6581    0.0000 C   0  0  3  0  0  0  0  0  0  0  0  0
    5.4641    0.6581    0.0000 C   0  0  0  0  0  0  0  0  0  0  0  0
    6.3580   -0.8766    0.0000 C   0  0  3  0  0  0  0  0  0  0  0  0
    3.7320   -0.3419    0.0000 C   0  0  0  0  0  0  0  0  0  0  0  0
    4.5981    1.1581    0.0000 C   0  0  0  0  0  0  0  0  0  0  0  0
    5.4641   -1.3419    0.0000 C   0  0  0  0  0  0  0  0  0  0  0  0
    2.8660    1.1581    0.0000 C   0  0  0  0  0  0  0  0  0  0  0  0
    7.2641   -0.3627    0.0000 C   0  0  0  0  0  0  0  0  0  0  0  0
    6.3580    1.1928    0.0000 C   0  0  0  0  0  0  0  0  0  0  0  0
    7.2641    0.6789    0.0000 C   0  0  0  0  0  0  0  0  0  0  0  0
    2.0000    0.6581    0.0000 C   0  0  0  0  0  0  0  0  0  0  0  0
    2.8660    2.1581    0.0000 C   0  0  0  0  0  0  0  0  0  0  0  0
    6.3465    2.1927    0.0000 C   0  0  0  0  0  0  0  0  0  0  0  0
    4.1996   -1.3168    0.0000 H   0  0  0  0  0  0  0  0  0  0  0  0
    4.9966   -1.3168    0.0000 H   0  0  0  0  0  0  0  0  0  0  0  0
    3.1951    0.3481    0.0000 H   0  0  0  0  0  0  0  0  0  0  0  0
    6.8920   -1.1917    0.0000 H   0  0  0  0  0  0  0  0  0  0  0  0
    3.1215   -0.2342    0.0000 H   0  0  0  0  0  0  0  0  0  0  0  0
    3.5200   -0.9245    0.0000 H   0  0  0  0  0  0  0  0  0  0  0  0
    4.5981    1.7781    0.0000 H   0  0  0  0  0  0  0  0  0  0  0  0
    4.8441   -1.3419    0.0000 H   0  0  0  0  0  0  0  0  0  0  0  0
    5.4641   -1.9619    0.0000 H   0  0  0  0  0  0  0  0  0  0  0  0
    6.0841   -1.3419    0.0000 H   0  0  0  0  0  0  0  0  0  0  0  0
    3.4030    1.4681    0.0000 H   0  0  0  0  0  0  0  0  0  0  0  0
    7.4732   -0.9464    0.0000 H   0  0  0  0  0  0  0  0  0  0  0  0
    7.8750   -0.2566    0.0000 H   0  0  0  0  0  0  0  0  0  0  0  0
    7.7998    0.9910    0.0000 H   0  0  0  0  0  0  0  0  0  0  0  0
    1.6900    1.1950    0.0000 H   0  0  0  0  0  0  0  0  0  0  0  0
    1.4631    0.3481    0.0000 H   0  0  0  0  0  0  0  0  0  0  0  0
    2.3100    0.1212    0.0000 H   0  0  0  0  0  0  0  0  0  0  0  0
    3.4860    2.1581    0.0000 H   0  0  0  0  0  0  0  0  0  0  0  0
    2.8660    2.7781    0.0000 H   0  0  0  0  0  0  0  0  0  0  0  0
    2.2460    2.1581    0.0000 H   0  0  0  0  0  0  0  0  0  0  0  0
    6.8798   -2.1927    0.0000 H   0  0  0  0  0  0  0  0  0  0  0  0
    6.9664    2.1999    0.0000 H   0  0  0  0  0  0  0  0  0  0  0  0
    6.3393    2.8126    0.0000 H   0  0  0  0  0  0  0  0  0  0  0  0
    5.7265    2.1855    0.0000 H   0  0  0  0  0  0  0  0  0  0  0  0
  1  6  1  0  0  0  0
  1 37  1  0  0  0  0
  2  3  1  0  0  0  0
  2  5  1  0  0  0  0
  2  6  1  0  0  0  0
  2  9  1  0  0  0  0
  3  7  1  0  0  0  0
  3 17  1  0  0  0  0
  3 18  1  0  0  0  0
  4  7  1  0  0  0  0
  4  8  1  0  0  0  0
  4 10  1  0  0  0  0
  4 19  1  0  0  0  0
  5  8  2  0  0  0  0
  5 12  1  0  0  0  0
  6 11  1  0  0  0  0
  6 20  1  0  0  0  0
  7 21  1  0  0  0  0
  7 22  1  0  0  0  0
  8 23  1  0  0  0  0
  9 24  1  0  0  0  0
  9 25  1  0  0  0  0
  9 26  1  0  0  0  0
 10 14  1  0  0  0  0
 10 15  1  0  0  0  0
 10 27  1  0  0  0  0
 11 13  1  0  0  0  0
 11 28  1  0  0  0  0
 11 29  1  0  0  0  0
 12 13  2  0  0  0  0
 12 16  1  0  0  0  0
 13 30  1  0  0  0  0
 14 31  1  0  0  0  0
 14 32  1  0  0  0  0
 14 33  1  0  0  0  0
 15 34  1  0  0  0  0
 15 35  1  0  0  0  0
 15 36  1  0  0  0  0
 16 38  1  0  0  0  0
 16 39  1  0  0  0  0
 16 40  1  0  0  0  0
M  END
> <PUBCHEM_COMPOUND_CID>
527221
> <PUBCHEM_COMPOUND_CANONICALIZED>
1
> <PUBCHEM_CACTVS_COMPLEXITY>
337
> <PUBCHEM_CACTVS_HBOND_ACCEPTOR>
1
> <PUBCHEM_CACTVS_HBOND_DONOR>
1
> <PUBCHEM_CACTVS_ROTATABLE_BOND>
1
> <PUBCHEM_CACTVS_SUBSKEYS>
AAADceBwIAAAAAAAAAAAAAAAAAAAAAAAAAAgQAAAAAAAAACAAAAAGgAACAAADxSggAICAAAAAgCAAiBCAAAAAAAgAAAACAAAAAgIEAIAAQAAQAAEwAAIgAOAwPAPgAAAAAAAAAAAAAAAAAAAAAAAAAAAAA==
> <PUBCHEM_IUPAC_OPENEYE_NAME>
6-isopropyl-4,8a-dimethyl-2,6,7,8-tetrahydro-1H-naphthalen-1-ol
> <PUBCHEM_IUPAC_CAS_NAME>
4,8a-dimethyl-6-propan-2-yl-2,6,7,8-tetrahydro-1H-naphthalen-1-ol
> <PUBCHEM_IUPAC_NAME_MARKUP>
4,8<I>a</I>-dimethyl-6-propan-2-yl-2,6,7,8-tetrahydro-1<I>H</I>-naphthalen-1-ol
> <PUBCHEM_IUPAC_NAME>
4,8a-dimethyl-6-propan-2-yl-2,6,7,8-tetrahydro-1H-naphthalen-1-ol
> <PUBCHEM_IUPAC_SYSTEMATIC_NAME>
4,8a-dimethyl-6-propan-2-yl-2,6,7,8-tetrahydro-1H-naphthalen-1-ol
> <PUBCHEM_IUPAC_TRADITIONAL_NAME>
6-isopropyl-4,8a-dimethyl-2,6,7,8-tetrahydro-1H-naphthalen-1-ol
> <PUBCHEM_IUPAC_INCHI>
InChI=1S/C15H24O/c1-10(2)12-7-8-15(4)13(9-12)11(3)5-6-14(15)16/h5,9-10,12,14,16H,6-8H2,1-4H3
> <PUBCHEM_IUPAC_INCHIKEY>
WTUMCHHLAJTPSA-UHFFFAOYSA-N
> <PUBCHEM_XLOGP3_AA>
3.4
> <PUBCHEM_EXACT_MASS>
220.182715385
> <PUBCHEM_MOLECULAR_FORMULA>
C15H24O
> <PUBCHEM_MOLECULAR_WEIGHT>
220.35
> <PUBCHEM_OPENEYE_CAN_SMILES>
CC1=CCC(C2(C1=CC(CC2)C(C)C)C)O
> <PUBCHEM_OPENEYE_ISO_SMILES>
CC1=CCC(C2(C1=CC(CC2)C(C)C)C)O
> <PUBCHEM_CACTVS_TPSA>
20.2
> <PUBCHEM_MONOISOTOPIC_WEIGHT>
220.182715385
> <PUBCHEM_TOTAL_CHARGE>
0
> <PUBCHEM_HEAVY_ATOM_COUNT>
16
> <PUBCHEM_ATOM_DEF_STEREO_COUNT>
0
> <PUBCHEM_ATOM_UDEF_STEREO_COUNT>
3
> <PUBCHEM_BOND_DEF_STEREO_COUNT>
0
> <PUBCHEM_BOND_UDEF_STEREO_COUNT>
0
> <PUBCHEM_ISOTOPIC_ATOM_COUNT>
0
> <PUBCHEM_COMPONENT_COUNT>
1
> <PUBCHEM_CACTVS_TAUTO_COUNT>
-1
> <PUBCHEM_COORDINATE_TYPE>
1
5
255
> <PUBCHEM_BONDANNOTATIONS>
6  1  3
2  9  3
4  10  3
$$$$
