527280
  -OEChem-10302200292D
 26 25  0     1  0  0  0  0  0999 V2000
    5.4641   -0.2500    0.0000 C   0  0  3  0  0  0  0  0  0  0  0  0
    6.3301    0.2500    0.0000 C   0  0  0  0  0  0  0  0  0  0  0  0
    5.4641   -1.2500    0.0000 C   0  0  0  0  0  0  0  0  0  0  0  0
    4.5981    0.2500    0.0000 C   0  0  0  0  0  0  0  0  0  0  0  0
    7.1962   -0.2500    0.0000 C   0  0  0  0  0  0  0  0  0  0  0  0
    3.7320   -0.2500    0.0000 C   0  0  0  0  0  0  0  0  0  0  0  0
    6.3301    1.2500    0.0000 C   0  0  0  0  0  0  0  0  0  0  0  0
    2.8660    0.2500    0.0000 C   0  0  0  0  0  0  0  0  0  0  0  0
    2.0000   -0.2500    0.0000 C   0  0  0  0  0  0  0  0  0  0  0  0
    2.8660    1.2500    0.0000 C   0  0  0  0  0  0  0  0  0  0  0  0
    6.0010   -0.5600    0.0000 H   0  0  0  0  0  0  0  0  0  0  0  0
    4.8441   -1.2500    0.0000 H   0  0  0  0  0  0  0  0  0  0  0  0
    5.4641   -1.8700    0.0000 H   0  0  0  0  0  0  0  0  0  0  0  0
    6.0841   -1.2500    0.0000 H   0  0  0  0  0  0  0  0  0  0  0  0
    4.5981    0.8700    0.0000 H   0  0  0  0  0  0  0  0  0  0  0  0
    6.8862   -0.7869    0.0000 H   0  0  0  0  0  0  0  0  0  0  0  0
    7.7331   -0.5600    0.0000 H   0  0  0  0  0  0  0  0  0  0  0  0
    7.5062    0.2869    0.0000 H   0  0  0  0  0  0  0  0  0  0  0  0
    3.7320   -0.8700    0.0000 H   0  0  0  0  0  0  0  0  0  0  0  0
    6.8671    1.5600    0.0000 H   0  0  0  0  0  0  0  0  0  0  0  0
    5.7932    1.5600    0.0000 H   0  0  0  0  0  0  0  0  0  0  0  0
    1.6900    0.2869    0.0000 H   0  0  0  0  0  0  0  0  0  0  0  0
    1.4631   -0.5600    0.0000 H   0  0  0  0  0  0  0  0  0  0  0  0
    2.3100   -0.7869    0.0000 H   0  0  0  0  0  0  0  0  0  0  0  0
    3.4030    1.5600    0.0000 H   0  0  0  0  0  0  0  0  0  0  0  0
    2.3291    1.5600    0.0000 H   0  0  0  0  0  0  0  0  0  0  0  0
  1  2  1  0  0  0  0
  1  3  1  0  0  0  0
  1  4  1  0  0  0  0
  1 11  1  0  0  0  0
  2  5  1  0  0  0  0
  2  7  2  0  0  0  0
  3 12  1  0  0  0  0
  3 13  1  0  0  0  0
  3 14  1  0  0  0  0
  4  6  2  3  0  0  0
  4 15  1  0  0  0  0
  5 16  1  0  0  0  0
  5 17  1  0  0  0  0
  5 18  1  0  0  0  0
  6  8  1  0  0  0  0
  6 19  1  0  0  0  0
  7 20  1  0  0  0  0
  7 21  1  0  0  0  0
  8  9  1  0  0  0  0
  8 10  2  0  0  0  0
  9 22  1  0  0  0  0
  9 23  1  0  0  0  0
  9 24  1  0  0  0  0
 10 25  1  0  0  0  0
 10 26  1  0  0  0  0
M  END
> <PUBCHEM_COMPOUND_CID>
527280
> <PUBCHEM_COMPOUND_CANONICALIZED>
1
> <PUBCHEM_CACTVS_COMPLEXITY>
161
> <PUBCHEM_CACTVS_HBOND_ACCEPTOR>
0
> <PUBCHEM_CACTVS_HBOND_DONOR>
0
> <PUBCHEM_CACTVS_ROTATABLE_BOND>
3
> <PUBCHEM_CACTVS_SUBSKEYS>
AAADceBwAAAAAAAAAAAAAAAAAAAAAAAAAAAAAAAAAAAAAAAAAAAAGAAAAAAADQCAAAACAAAAAACAAiBCAAAAAAAgAAAICAAAAAgIAAAAAQAAAAAAgAAIgAIAAAAIAAAAAAAAAAAAAAAAAAAAAAAAAAAAAA==
> <PUBCHEM_IUPAC_OPENEYE_NAME>
2,5,6-trimethylhepta-1,3,6-triene
> <PUBCHEM_IUPAC_CAS_NAME>
2,5,6-trimethylhepta-1,3,6-triene
> <PUBCHEM_IUPAC_NAME_MARKUP>
2,5,6-trimethylhepta-1,3,6-triene
> <PUBCHEM_IUPAC_NAME>
2,5,6-trimethylhepta-1,3,6-triene
> <PUBCHEM_IUPAC_SYSTEMATIC_NAME>
2,5,6-trimethylhepta-1,3,6-triene
> <PUBCHEM_IUPAC_TRADITIONAL_NAME>
2,5,6-trimethylhepta-1,3,6-triene
> <PUBCHEM_IUPAC_INCHI>
InChI=1S/C10H16/c1-8(2)6-7-10(5)9(3)4/h6-7,10H,1,3H2,2,4-5H3
> <PUBCHEM_IUPAC_INCHIKEY>
PSZBPDGPFVFTSW-UHFFFAOYSA-N
> <PUBCHEM_XLOGP3_AA>
4.4
> <PUBCHEM_EXACT_MASS>
136.125200510
> <PUBCHEM_MOLECULAR_FORMULA>
C10H16
> <PUBCHEM_MOLECULAR_WEIGHT>
136.23
> <PUBCHEM_OPENEYE_CAN_SMILES>
CC(C=CC(=C)C)C(=C)C
> <PUBCHEM_OPENEYE_ISO_SMILES>
CC(C=CC(=C)C)C(=C)C
> <PUBCHEM_CACTVS_TPSA>
0
> <PUBCHEM_MONOISOTOPIC_WEIGHT>
136.125200510
> <PUBCHEM_TOTAL_CHARGE>
0
> <PUBCHEM_HEAVY_ATOM_COUNT>
10
> <PUBCHEM_ATOM_DEF_STEREO_COUNT>
0
> <PUBCHEM_ATOM_UDEF_STEREO_COUNT>
1
> <PUBCHEM_BOND_DEF_STEREO_COUNT>
0
> <PUBCHEM_BOND_UDEF_STEREO_COUNT>
1
> <PUBCHEM_ISOTOPIC_ATOM_COUNT>
0
> <PUBCHEM_COMPONENT_COUNT>
1
> <PUBCHEM_CACTVS_TAUTO_COUNT>
1
> <PUBCHEM_COORDINATE_TYPE>
1
5
255
> <PUBCHEM_BONDANNOTATIONS>
1  3  3
4  6  1
$$$$
