527259
  -OEChem-10302200292D
 29 30  0     1  0  0  0  0  0999 V2000
    3.5388   -1.5950    0.0000 O   0  0  0  0  0  0  0  0  0  0  0  0
    3.5388    0.4050    0.0000 C   0  0  3  0  0  0  0  0  0  0  0  0
    3.5388   -0.5950    0.0000 C   0  0  3  0  0  0  0  0  0  0  0  0
    4.4054   -0.0950    0.0000 C   0  0  0  0  0  0  0  0  0  0  0  0
    2.5878   -0.9040    0.0000 C   0  0  3  0  0  0  0  0  0  0  0  0
    2.5878    0.7140    0.0000 C   0  0  0  0  0  0  0  0  0  0  0  0
    3.5388    1.4050    0.0000 C   0  0  0  0  0  0  0  0  0  0  0  0
    2.0000   -0.0950    0.0000 C   0  0  0  0  0  0  0  0  0  0  0  0
    2.2788   -1.8551    0.0000 C   0  0  0  0  0  0  0  0  0  0  0  0
    4.4049    1.9050    0.0000 C   0  0  0  0  0  0  0  0  0  0  0  0
    2.6728    1.9050    0.0000 C   0  0  0  0  0  0  0  0  0  0  0  0
    4.8039   -0.5700    0.0000 H   0  0  0  0  0  0  0  0  0  0  0  0
    4.8039    0.3800    0.0000 H   0  0  0  0  0  0  0  0  0  0  0  0
    1.9754   -1.0010    0.0000 H   0  0  0  0  0  0  0  0  0  0  0  0
    2.8400    1.2804    0.0000 H   0  0  0  0  0  0  0  0  0  0  0  0
    2.0508    1.0240    0.0000 H   0  0  0  0  0  0  0  0  0  0  0  0
    3.5388    2.0250    0.0000 H   0  0  0  0  0  0  0  0  0  0  0  0
    1.5392    0.3199    0.0000 H   0  0  0  0  0  0  0  0  0  0  0  0
    1.5392   -0.5099    0.0000 H   0  0  0  0  0  0  0  0  0  0  0  0
    4.0758   -1.9050    0.0000 H   0  0  0  0  0  0  0  0  0  0  0  0
    1.6891   -1.6635    0.0000 H   0  0  0  0  0  0  0  0  0  0  0  0
    2.0872   -2.4447    0.0000 H   0  0  0  0  0  0  0  0  0  0  0  0
    2.8684   -2.0467    0.0000 H   0  0  0  0  0  0  0  0  0  0  0  0
    4.7149    1.3681    0.0000 H   0  0  0  0  0  0  0  0  0  0  0  0
    4.9418    2.2150    0.0000 H   0  0  0  0  0  0  0  0  0  0  0  0
    4.0949    2.4419    0.0000 H   0  0  0  0  0  0  0  0  0  0  0  0
    2.9828    2.4419    0.0000 H   0  0  0  0  0  0  0  0  0  0  0  0
    2.1359    2.2150    0.0000 H   0  0  0  0  0  0  0  0  0  0  0  0
    2.3628    1.3681    0.0000 H   0  0  0  0  0  0  0  0  0  0  0  0
  1  3  1  0  0  0  0
  1 20  1  0  0  0  0
  2  3  1  0  0  0  0
  2  4  1  0  0  0  0
  2  6  1  0  0  0  0
  2  7  1  0  0  0  0
  3  4  1  0  0  0  0
  3  5  1  0  0  0  0
  4 12  1  0  0  0  0
  4 13  1  0  0  0  0
  5  8  1  0  0  0  0
  5  9  1  0  0  0  0
  5 14  1  0  0  0  0
  6  8  1  0  0  0  0
  6 15  1  0  0  0  0
  6 16  1  0  0  0  0
  7 10  1  0  0  0  0
  7 11  1  0  0  0  0
  7 17  1  0  0  0  0
  8 18  1  0  0  0  0
  8 19  1  0  0  0  0
  9 21  1  0  0  0  0
  9 22  1  0  0  0  0
  9 23  1  0  0  0  0
 10 24  1  0  0  0  0
 10 25  1  0  0  0  0
 10 26  1  0  0  0  0
 11 27  1  0  0  0  0
 11 28  1  0  0  0  0
 11 29  1  0  0  0  0
M  END
> <PUBCHEM_COMPOUND_CID>
527259
> <PUBCHEM_COMPOUND_CANONICALIZED>
1
> <PUBCHEM_CACTVS_COMPLEXITY>
187
> <PUBCHEM_CACTVS_HBOND_ACCEPTOR>
1
> <PUBCHEM_CACTVS_HBOND_DONOR>
1
> <PUBCHEM_CACTVS_ROTATABLE_BOND>
1
> <PUBCHEM_CACTVS_SUBSKEYS>
AAADceBwIAAAAAAAAAAAAAAAGAAAAYAAAAAwAAAAAAAAAAAAAAAAGgAACAAAD0SAgAACAAAAAgAAAAAAAAAAAAAAAAAAAAAAAAAAAAIAAAAAQAAEAAAAAAGAwPAPgAAAAAAAAACAAAIAABAAAQAADAAAAA==
> <PUBCHEM_IUPAC_OPENEYE_NAME>
5-isopropyl-2-methyl-bicyclo[3.1.0]hexan-1-ol
> <PUBCHEM_IUPAC_CAS_NAME>
2-methyl-5-propan-2-yl-1-bicyclo[3.1.0]hexanol
> <PUBCHEM_IUPAC_NAME_MARKUP>
2-methyl-5-propan-2-ylbicyclo[3.1.0]hexan-1-ol
> <PUBCHEM_IUPAC_NAME>
2-methyl-5-propan-2-ylbicyclo[3.1.0]hexan-1-ol
> <PUBCHEM_IUPAC_SYSTEMATIC_NAME>
2-methyl-5-propan-2-yl-bicyclo[3.1.0]hexan-1-ol
> <PUBCHEM_IUPAC_TRADITIONAL_NAME>
5-isopropyl-2-methyl-bicyclo[3.1.0]hexan-1-ol
> <PUBCHEM_IUPAC_INCHI>
InChI=1S/C10H18O/c1-7(2)9-5-4-8(3)10(9,11)6-9/h7-8,11H,4-6H2,1-3H3
> <PUBCHEM_IUPAC_INCHIKEY>
IKXCCPWTSIENLL-UHFFFAOYSA-N
> <PUBCHEM_XLOGP3_AA>
2.3
> <PUBCHEM_EXACT_MASS>
154.135765193
> <PUBCHEM_MOLECULAR_FORMULA>
C10H18O
> <PUBCHEM_MOLECULAR_WEIGHT>
154.25
> <PUBCHEM_OPENEYE_CAN_SMILES>
CC1CCC2(C1(C2)O)C(C)C
> <PUBCHEM_OPENEYE_ISO_SMILES>
CC1CCC2(C1(C2)O)C(C)C
> <PUBCHEM_CACTVS_TPSA>
20.2
> <PUBCHEM_MONOISOTOPIC_WEIGHT>
154.135765193
> <PUBCHEM_TOTAL_CHARGE>
0
> <PUBCHEM_HEAVY_ATOM_COUNT>
11
> <PUBCHEM_ATOM_DEF_STEREO_COUNT>
0
> <PUBCHEM_ATOM_UDEF_STEREO_COUNT>
3
> <PUBCHEM_BOND_DEF_STEREO_COUNT>
0
> <PUBCHEM_BOND_UDEF_STEREO_COUNT>
0
> <PUBCHEM_ISOTOPIC_ATOM_COUNT>
0
> <PUBCHEM_COMPONENT_COUNT>
1
> <PUBCHEM_CACTVS_TAUTO_COUNT>
-1
> <PUBCHEM_COORDINATE_TYPE>
1
5
255
> <PUBCHEM_BONDANNOTATIONS>
2  7  3
3  5  3
5  9  3
$$$$
