527246
  -OEChem-10302200292D
 40 42  0     1  0  0  0  0  0999 V2000
    2.6183   -2.6019    0.0000 O   0  0  0  0  0  0  0  0  0  0  0  0
    4.1664   -0.5396    0.0000 C   0  0  3  0  0  0  0  0  0  0  0  0
    3.2654   -0.1057    0.0000 C   0  0  3  0  0  0  0  0  0  0  0  0
    4.6664    1.6511    0.0000 C   0  0  3  0  0  0  0  0  0  0  0  0
    4.0596    0.6372    0.0000 C   0  0  0  0  0  0  0  0  0  0  0  0
    4.0304   -1.5243    0.0000 C   0  0  3  0  0  0  0  0  0  0  0  0
    5.0674   -0.1057    0.0000 C   0  0  0  0  0  0  0  0  0  0  0  0
    3.6664    1.6511    0.0000 C   0  0  0  0  0  0  0  0  0  0  0  0
    5.2899    0.8692    0.0000 C   0  0  0  0  0  0  0  0  0  0  0  0
    2.5803   -0.8260    0.0000 C   0  0  0  0  0  0  0  0  0  0  0  0
    3.0429    0.8692    0.0000 C   0  0  0  0  0  0  0  0  0  0  0  0
    3.0522   -1.7010    0.0000 C   0  0  3  0  0  0  0  0  0  0  0  0
    4.7520   -2.2166    0.0000 C   0  0  0  0  0  0  0  0  0  0  0  0
    3.7411    2.6483    0.0000 C   0  0  0  0  0  0  0  0  0  0  0  0
    2.8402    2.2144    0.0000 C   0  0  0  0  0  0  0  0  0  0  0  0
    2.0680    1.0918    0.0000 C   0  0  0  0  0  0  0  0  0  0  0  0
    2.6676    0.0585    0.0000 H   0  0  0  0  0  0  0  0  0  0  0  0
    4.9354    2.2097    0.0000 H   0  0  0  0  0  0  0  0  0  0  0  0
    3.6518    1.1042    0.0000 H   0  0  0  0  0  0  0  0  0  0  0  0
    3.4895    0.3934    0.0000 H   0  0  0  0  0  0  0  0  0  0  0  0
    4.6161   -1.3208    0.0000 H   0  0  0  0  0  0  0  0  0  0  0  0
    5.2053   -0.7102    0.0000 H   0  0  0  0  0  0  0  0  0  0  0  0
    5.6874   -0.1057    0.0000 H   0  0  0  0  0  0  0  0  0  0  0  0
    5.8485    0.6002    0.0000 H   0  0  0  0  0  0  0  0  0  0  0  0
    5.6765    1.3540    0.0000 H   0  0  0  0  0  0  0  0  0  0  0  0
    2.1785   -0.3538    0.0000 H   0  0  0  0  0  0  0  0  0  0  0  0
    2.0686   -1.1760    0.0000 H   0  0  0  0  0  0  0  0  0  0  0  0
    2.4323   -1.7152    0.0000 H   0  0  0  0  0  0  0  0  0  0  0  0
    4.3228   -2.6640    0.0000 H   0  0  0  0  0  0  0  0  0  0  0  0
    5.1994   -2.6459    0.0000 H   0  0  0  0  0  0  0  0  0  0  0  0
    5.1812   -1.7692    0.0000 H   0  0  0  0  0  0  0  0  0  0  0  0
    4.3594    2.6019    0.0000 H   0  0  0  0  0  0  0  0  0  0  0  0
    3.7875    3.2665    0.0000 H   0  0  0  0  0  0  0  0  0  0  0  0
    3.1229    2.6946    0.0000 H   0  0  0  0  0  0  0  0  0  0  0  0
    3.1894    2.7266    0.0000 H   0  0  0  0  0  0  0  0  0  0  0  0
    2.3279    2.5636    0.0000 H   0  0  0  0  0  0  0  0  0  0  0  0
    2.4909    1.7021    0.0000 H   0  0  0  0  0  0  0  0  0  0  0  0
    1.8852    1.6842    0.0000 H   0  0  0  0  0  0  0  0  0  0  0  0
    1.6463    0.6373    0.0000 H   0  0  0  0  0  0  0  0  0  0  0  0
    2.0000   -2.6483    0.0000 H   0  0  0  0  0  0  0  0  0  0  0  0
  1 12  1  0  0  0  0
  1 40  1  0  0  0  0
  2  3  1  0  0  0  0
  2  5  1  0  0  0  0
  2  6  1  0  0  0  0
  2  7  1  0  0  0  0
  3 10  1  0  0  0  0
  3 11  1  0  0  0  0
  3 17  1  0  0  0  0
  4  5  1  0  0  0  0
  4  8  1  0  0  0  0
  4  9  1  0  0  0  0
  4 18  1  0  0  0  0
  5 19  1  0  0  0  0
  5 20  1  0  0  0  0
  6 12  1  0  0  0  0
  6 13  1  0  0  0  0
  6 21  1  0  0  0  0
  7  9  1  0  0  0  0
  7 22  1  0  0  0  0
  7 23  1  0  0  0  0
  8 11  1  0  0  0  0
  8 14  1  0  0  0  0
  8 15  1  0  0  0  0
  9 24  1  0  0  0  0
  9 25  1  0  0  0  0
 10 12  1  0  0  0  0
 10 26  1  0  0  0  0
 10 27  1  0  0  0  0
 11 16  2  0  0  0  0
 12 28  1  0  0  0  0
 13 29  1  0  0  0  0
 13 30  1  0  0  0  0
 13 31  1  0  0  0  0
 14 32  1  0  0  0  0
 14 33  1  0  0  0  0
 14 34  1  0  0  0  0
 15 35  1  0  0  0  0
 15 36  1  0  0  0  0
 15 37  1  0  0  0  0
 16 38  1  0  0  0  0
 16 39  1  0  0  0  0
M  END
> <PUBCHEM_COMPOUND_CID>
527246
> <PUBCHEM_COMPOUND_CANONICALIZED>
1
> <PUBCHEM_CACTVS_COMPLEXITY>
343
> <PUBCHEM_CACTVS_HBOND_ACCEPTOR>
1
> <PUBCHEM_CACTVS_HBOND_DONOR>
1
> <PUBCHEM_CACTVS_ROTATABLE_BOND>
0
> <PUBCHEM_CACTVS_SUBSKEYS>
AAADceBwIAAAAAAAAAAAAAAAAAAAAYMAAAAwAAAABgAAAGDAAAAAGgAACAAADxSggAICAAAAAgCAAgBCAAAAAAAgAAAAAAAAAAgAEAIAAQAAQAAEgAAAAAGAwPAPgAAAAAAAAACAAAQAACAAAYAADAAAAA==
> <PUBCHEM_IUPAC_OPENEYE_NAME>
2,7,7-trimethyl-6-methylene-tricyclo[6.2.1.01,5]undecan-3-ol
> <PUBCHEM_IUPAC_CAS_NAME>
2,7,7-trimethyl-6-methylene-3-tricyclo[6.2.1.01,5]undecanol
> <PUBCHEM_IUPAC_NAME_MARKUP>
2,7,7-trimethyl-6-methylidenetricyclo[6.2.1.0<SUP>1,5</SUP>]undecan-3-ol
> <PUBCHEM_IUPAC_NAME>
2,7,7-trimethyl-6-methylidenetricyclo[6.2.1.01,5]undecan-3-ol
> <PUBCHEM_IUPAC_SYSTEMATIC_NAME>
2,7,7-trimethyl-6-methylidene-tricyclo[6.2.1.01,5]undecan-3-ol
> <PUBCHEM_IUPAC_TRADITIONAL_NAME>
2,7,7-trimethyl-6-methylene-tricyclo[6.2.1.01,5]undecan-3-ol
> <PUBCHEM_IUPAC_INCHI>
InChI=1S/C15H24O/c1-9-12-7-13(16)10(2)15(12)6-5-11(8-15)14(9,3)4/h10-13,16H,1,5-8H2,2-4H3
> <PUBCHEM_IUPAC_INCHIKEY>
JZLOTPMXLYBVOH-UHFFFAOYSA-N
> <PUBCHEM_XLOGP3_AA>
3.7
> <PUBCHEM_EXACT_MASS>
220.182715385
> <PUBCHEM_MOLECULAR_FORMULA>
C15H24O
> <PUBCHEM_MOLECULAR_WEIGHT>
220.35
> <PUBCHEM_OPENEYE_CAN_SMILES>
CC1C(CC2C13CCC(C3)C(C2=C)(C)C)O
> <PUBCHEM_OPENEYE_ISO_SMILES>
CC1C(CC2C13CCC(C3)C(C2=C)(C)C)O
> <PUBCHEM_CACTVS_TPSA>
20.2
> <PUBCHEM_MONOISOTOPIC_WEIGHT>
220.182715385
> <PUBCHEM_TOTAL_CHARGE>
0
> <PUBCHEM_HEAVY_ATOM_COUNT>
16
> <PUBCHEM_ATOM_DEF_STEREO_COUNT>
0
> <PUBCHEM_ATOM_UDEF_STEREO_COUNT>
5
> <PUBCHEM_BOND_DEF_STEREO_COUNT>
0
> <PUBCHEM_BOND_UDEF_STEREO_COUNT>
0
> <PUBCHEM_ISOTOPIC_ATOM_COUNT>
0
> <PUBCHEM_COMPONENT_COUNT>
1
> <PUBCHEM_CACTVS_TAUTO_COUNT>
-1
> <PUBCHEM_COORDINATE_TYPE>
1
5
255
> <PUBCHEM_BONDANNOTATIONS>
12  1  3
2  7  3
3  10  3
4  9  3
6  13  3
$$$$
