527230
  -OEChem-10302200292D
 42 43  0     1  0  0  0  0  0999 V2000
    2.8660   -0.5000    0.0000 O   0  0  0  0  0  0  0  0  0  0  0  0
    3.7320    1.0000    0.0000 O   0  0  0  0  0  0  0  0  0  0  0  0
    7.1962   -0.0000    0.0000 C   0  0  3  0  0  0  0  0  0  0  0  0
    8.0901   -0.5347    0.0000 C   0  0  3  0  0  0  0  0  0  0  0  0
    7.1962    1.0000    0.0000 C   0  0  0  0  0  0  0  0  0  0  0  0
    6.3301   -0.5000    0.0000 C   0  0  0  0  0  0  0  0  0  0  0  0
    8.9962   -0.0208    0.0000 C   0  0  0  0  0  0  0  0  0  0  0  0
    6.3301    1.5000    0.0000 C   0  0  0  0  0  0  0  0  0  0  0  0
    7.1962   -1.0000    0.0000 C   0  0  0  0  0  0  0  0  0  0  0  0
    5.4641   -0.0000    0.0000 C   0  0  0  0  0  0  0  0  0  0  0  0
    8.9962    1.0208    0.0000 C   0  0  0  0  0  0  0  0  0  0  0  0
    5.4641    1.0000    0.0000 C   0  0  0  0  0  0  0  0  0  0  0  0
    8.0901    1.5346    0.0000 C   0  0  0  0  0  0  0  0  0  0  0  0
    8.0785   -1.5346    0.0000 C   0  0  0  0  0  0  0  0  0  0  0  0
    4.5981   -0.5000    0.0000 C   0  0  0  0  0  0  0  0  0  0  0  0
    4.5981   -1.5000    0.0000 C   0  0  0  0  0  0  0  0  0  0  0  0
    3.7320   -0.0000    0.0000 C   0  0  0  0  0  0  0  0  0  0  0  0
    2.0000   -0.0000    0.0000 C   0  0  0  0  0  0  0  0  0  0  0  0
    8.6240   -0.8499    0.0000 H   0  0  0  0  0  0  0  0  0  0  0  0
    5.9316   -0.9750    0.0000 H   0  0  0  0  0  0  0  0  0  0  0  0
    6.7287   -0.9750    0.0000 H   0  0  0  0  0  0  0  0  0  0  0  0
    9.2052   -0.6045    0.0000 H   0  0  0  0  0  0  0  0  0  0  0  0
    9.6070    0.0852    0.0000 H   0  0  0  0  0  0  0  0  0  0  0  0
    6.7287    1.9749    0.0000 H   0  0  0  0  0  0  0  0  0  0  0  0
    5.9316    1.9749    0.0000 H   0  0  0  0  0  0  0  0  0  0  0  0
    6.5762   -1.0000    0.0000 H   0  0  0  0  0  0  0  0  0  0  0  0
    7.1962   -1.6200    0.0000 H   0  0  0  0  0  0  0  0  0  0  0  0
    7.8162   -1.0000    0.0000 H   0  0  0  0  0  0  0  0  0  0  0  0
    9.6070    0.9147    0.0000 H   0  0  0  0  0  0  0  0  0  0  0  0
    9.2052    1.6045    0.0000 H   0  0  0  0  0  0  0  0  0  0  0  0
    5.2520    1.5826    0.0000 H   0  0  0  0  0  0  0  0  0  0  0  0
    4.8535    0.8923    0.0000 H   0  0  0  0  0  0  0  0  0  0  0  0
    8.0829    2.1546    0.0000 H   0  0  0  0  0  0  0  0  0  0  0  0
    7.4586   -1.5275    0.0000 H   0  0  0  0  0  0  0  0  0  0  0  0
    8.0714   -2.1546    0.0000 H   0  0  0  0  0  0  0  0  0  0  0  0
    8.6985   -1.5418    0.0000 H   0  0  0  0  0  0  0  0  0  0  0  0
    3.9781   -1.5000    0.0000 H   0  0  0  0  0  0  0  0  0  0  0  0
    4.5981   -2.1200    0.0000 H   0  0  0  0  0  0  0  0  0  0  0  0
    5.2181   -1.5000    0.0000 H   0  0  0  0  0  0  0  0  0  0  0  0
    2.3100    0.5369    0.0000 H   0  0  0  0  0  0  0  0  0  0  0  0
    1.4631    0.3100    0.0000 H   0  0  0  0  0  0  0  0  0  0  0  0
    1.6900   -0.5370    0.0000 H   0  0  0  0  0  0  0  0  0  0  0  0
  1 17  1  0  0  0  0
  1 18  1  0  0  0  0
  2 17  2  0  0  0  0
  3  4  1  0  0  0  0
  3  5  1  0  0  0  0
  3  6  1  0  0  0  0
  3  9  1  0  0  0  0
  4  7  1  0  0  0  0
  4 14  1  0  0  0  0
  4 19  1  0  0  0  0
  5  8  1  0  0  0  0
  5 13  2  0  0  0  0
  6 10  1  0  0  0  0
  6 20  1  0  0  0  0
  6 21  1  0  0  0  0
  7 11  1  0  0  0  0
  7 22  1  0  0  0  0
  7 23  1  0  0  0  0
  8 12  1  0  0  0  0
  8 24  1  0  0  0  0
  8 25  1  0  0  0  0
  9 26  1  0  0  0  0
  9 27  1  0  0  0  0
  9 28  1  0  0  0  0
 10 12  1  0  0  0  0
 10 15  2  3  0  0  0
 11 13  1  0  0  0  0
 11 29  1  0  0  0  0
 11 30  1  0  0  0  0
 12 31  1  0  0  0  0
 12 32  1  0  0  0  0
 13 33  1  0  0  0  0
 14 34  1  0  0  0  0
 14 35  1  0  0  0  0
 14 36  1  0  0  0  0
 15 16  1  0  0  0  0
 15 17  1  0  0  0  0
 16 37  1  0  0  0  0
 16 38  1  0  0  0  0
 16 39  1  0  0  0  0
 18 40  1  0  0  0  0
 18 41  1  0  0  0  0
 18 42  1  0  0  0  0
M  END
> <PUBCHEM_COMPOUND_CID>
527230
> <PUBCHEM_COMPOUND_CANONICALIZED>
1
> <PUBCHEM_CACTVS_COMPLEXITY>
417
> <PUBCHEM_CACTVS_HBOND_ACCEPTOR>
2
> <PUBCHEM_CACTVS_HBOND_DONOR>
0
> <PUBCHEM_CACTVS_ROTATABLE_BOND>
2
> <PUBCHEM_CACTVS_SUBSKEYS>
AAADceB4MAAAAAAAAAAAAAAAAAAAAAAAAAAwQAAAAAAAAACAAAAAGgAAAAAADwCAgAICCAAABACIAiDSCAAAAAAgAAAACAEAAEgABAIAIQAAEAAAgAAIIQMAgMAPgAAAAAAAAAAAAAAAAAAAAAAAAAAAAA==
> <PUBCHEM_IUPAC_OPENEYE_NAME>
methyl 2-(8,8a-dimethyl-1,3,4,6,7,8-hexahydronaphthalen-2-ylidene)propanoate
> <PUBCHEM_IUPAC_CAS_NAME>
2-(8,8a-dimethyl-1,3,4,6,7,8-hexahydronaphthalen-2-ylidene)propanoic acid methyl ester
> <PUBCHEM_IUPAC_NAME_MARKUP>
methyl 2-(8,8<I>a</I>-dimethyl-1,3,4,6,7,8-hexahydronaphthalen-2-ylidene)propanoate
> <PUBCHEM_IUPAC_NAME>
methyl 2-(8,8a-dimethyl-1,3,4,6,7,8-hexahydronaphthalen-2-ylidene)propanoate
> <PUBCHEM_IUPAC_SYSTEMATIC_NAME>
methyl 2-(8,8a-dimethyl-1,3,4,6,7,8-hexahydronaphthalen-2-ylidene)propanoate
> <PUBCHEM_IUPAC_TRADITIONAL_NAME>
2-(8,8a-dimethyl-1,3,4,6,7,8-hexahydronaphthalen-2-ylidene)propionic acid methyl ester
> <PUBCHEM_IUPAC_INCHI>
InChI=1S/C16H24O2/c1-11-6-5-7-14-9-8-13(10-16(11,14)3)12(2)15(17)18-4/h7,11H,5-6,8-10H2,1-4H3
> <PUBCHEM_IUPAC_INCHIKEY>
IQNNVJGAZGSJBO-UHFFFAOYSA-N
> <PUBCHEM_XLOGP3_AA>
3.5
> <PUBCHEM_EXACT_MASS>
248.177630004
> <PUBCHEM_MOLECULAR_FORMULA>
C16H24O2
> <PUBCHEM_MOLECULAR_WEIGHT>
248.36
> <PUBCHEM_OPENEYE_CAN_SMILES>
CC1CCC=C2C1(CC(=C(C)C(=O)OC)CC2)C
> <PUBCHEM_OPENEYE_ISO_SMILES>
CC1CCC=C2C1(CC(=C(C)C(=O)OC)CC2)C
> <PUBCHEM_CACTVS_TPSA>
26.3
> <PUBCHEM_MONOISOTOPIC_WEIGHT>
248.177630004
> <PUBCHEM_TOTAL_CHARGE>
0
> <PUBCHEM_HEAVY_ATOM_COUNT>
18
> <PUBCHEM_ATOM_DEF_STEREO_COUNT>
0
> <PUBCHEM_ATOM_UDEF_STEREO_COUNT>
2
> <PUBCHEM_BOND_DEF_STEREO_COUNT>
0
> <PUBCHEM_BOND_UDEF_STEREO_COUNT>
1
> <PUBCHEM_ISOTOPIC_ATOM_COUNT>
0
> <PUBCHEM_COMPONENT_COUNT>
1
> <PUBCHEM_CACTVS_TAUTO_COUNT>
-1
> <PUBCHEM_COORDINATE_TYPE>
1
5
255
> <PUBCHEM_BONDANNOTATIONS>
10  15  1
3  9  3
4  14  3
$$$$
