527243
  -OEChem-10302200292D
 45 47  0     1  0  0  0  0  0999 V2000
    4.4453   -2.0863    0.0000 O   0  0  0  0  0  0  0  0  0  0  0  0
    6.1272   -2.4998    0.0000 O   0  0  0  0  0  0  0  0  0  0  0  0
    4.0984    0.5618    0.0000 C   0  0  3  0  0  0  0  0  0  0  0  0
    3.1974    0.9957    0.0000 C   0  0  3  0  0  0  0  0  0  0  0  0
    4.5984    2.7525    0.0000 C   0  0  3  0  0  0  0  0  0  0  0  0
    3.9916    1.7386    0.0000 C   0  0  0  0  0  0  0  0  0  0  0  0
    3.9624   -0.4229    0.0000 C   0  0  3  0  0  0  0  0  0  0  0  0
    4.9994    0.9957    0.0000 C   0  0  0  0  0  0  0  0  0  0  0  0
    3.5984    2.7525    0.0000 C   0  0  0  0  0  0  0  0  0  0  0  0
    5.2219    1.9706    0.0000 C   0  0  0  0  0  0  0  0  0  0  0  0
    2.5124    0.2754    0.0000 C   0  0  0  0  0  0  0  0  0  0  0  0
    2.9749    1.9706    0.0000 C   0  0  0  0  0  0  0  0  0  0  0  0
    2.9842   -0.5996    0.0000 C   0  0  0  0  0  0  0  0  0  0  0  0
    4.6840   -1.1152    0.0000 C   0  0  0  0  0  0  0  0  0  0  0  0
    3.6732    3.7497    0.0000 C   0  0  0  0  0  0  0  0  0  0  0  0
    2.7722    3.3158    0.0000 C   0  0  0  0  0  0  0  0  0  0  0  0
    2.0000    2.1932    0.0000 C   0  0  0  0  0  0  0  0  0  0  0  0
    5.1669   -2.7786    0.0000 C   0  0  0  0  0  0  0  0  0  0  0  0
    4.9281   -3.7497    0.0000 C   0  0  0  0  0  0  0  0  0  0  0  0
    2.5996    1.1599    0.0000 H   0  0  0  0  0  0  0  0  0  0  0  0
    4.8674    3.3111    0.0000 H   0  0  0  0  0  0  0  0  0  0  0  0
    3.5838    2.2056    0.0000 H   0  0  0  0  0  0  0  0  0  0  0  0
    3.4215    1.4948    0.0000 H   0  0  0  0  0  0  0  0  0  0  0  0
    3.7833   -1.0165    0.0000 H   0  0  0  0  0  0  0  0  0  0  0  0
    5.1374    0.3913    0.0000 H   0  0  0  0  0  0  0  0  0  0  0  0
    5.6194    0.9957    0.0000 H   0  0  0  0  0  0  0  0  0  0  0  0
    5.7805    1.7016    0.0000 H   0  0  0  0  0  0  0  0  0  0  0  0
    5.6085    2.4554    0.0000 H   0  0  0  0  0  0  0  0  0  0  0  0
    2.1105    0.7476    0.0000 H   0  0  0  0  0  0  0  0  0  0  0  0
    2.0006   -0.0746    0.0000 H   0  0  0  0  0  0  0  0  0  0  0  0
    2.4105   -0.8348    0.0000 H   0  0  0  0  0  0  0  0  0  0  0  0
    3.1579   -1.1947    0.0000 H   0  0  0  0  0  0  0  0  0  0  0  0
    5.2512   -1.3655    0.0000 H   0  0  0  0  0  0  0  0  0  0  0  0
    5.0290   -0.6001    0.0000 H   0  0  0  0  0  0  0  0  0  0  0  0
    4.2914    3.7034    0.0000 H   0  0  0  0  0  0  0  0  0  0  0  0
    3.7195    4.3680    0.0000 H   0  0  0  0  0  0  0  0  0  0  0  0
    3.0549    3.7960    0.0000 H   0  0  0  0  0  0  0  0  0  0  0  0
    3.1214    3.8281    0.0000 H   0  0  0  0  0  0  0  0  0  0  0  0
    2.2599    3.6651    0.0000 H   0  0  0  0  0  0  0  0  0  0  0  0
    2.4229    2.8035    0.0000 H   0  0  0  0  0  0  0  0  0  0  0  0
    1.8172    2.7856    0.0000 H   0  0  0  0  0  0  0  0  0  0  0  0
    1.5783    1.7387    0.0000 H   0  0  0  0  0  0  0  0  0  0  0  0
    4.3260   -3.6016    0.0000 H   0  0  0  0  0  0  0  0  0  0  0  0
    4.7801   -4.3518    0.0000 H   0  0  0  0  0  0  0  0  0  0  0  0
    5.5302   -3.8977    0.0000 H   0  0  0  0  0  0  0  0  0  0  0  0
  1 14  1  0  0  0  0
  1 18  1  0  0  0  0
  2 18  2  0  0  0  0
  3  4  1  0  0  0  0
  3  6  1  0  0  0  0
  3  7  1  0  0  0  0
  3  8  1  0  0  0  0
  4 11  1  0  0  0  0
  4 12  1  0  0  0  0
  4 20  1  0  0  0  0
  5  6  1  0  0  0  0
  5  9  1  0  0  0  0
  5 10  1  0  0  0  0
  5 21  1  0  0  0  0
  6 22  1  0  0  0  0
  6 23  1  0  0  0  0
  7 13  1  0  0  0  0
  7 14  1  0  0  0  0
  7 24  1  0  0  0  0
  8 10  1  0  0  0  0
  8 25  1  0  0  0  0
  8 26  1  0  0  0  0
  9 12  1  0  0  0  0
  9 15  1  0  0  0  0
  9 16  1  0  0  0  0
 10 27  1  0  0  0  0
 10 28  1  0  0  0  0
 11 13  1  0  0  0  0
 11 29  1  0  0  0  0
 11 30  1  0  0  0  0
 12 17  2  0  0  0  0
 13 31  1  0  0  0  0
 13 32  1  0  0  0  0
 14 33  1  0  0  0  0
 14 34  1  0  0  0  0
 15 35  1  0  0  0  0
 15 36  1  0  0  0  0
 15 37  1  0  0  0  0
 16 38  1  0  0  0  0
 16 39  1  0  0  0  0
 16 40  1  0  0  0  0
 17 41  1  0  0  0  0
 17 42  1  0  0  0  0
 18 19  1  0  0  0  0
 19 43  1  0  0  0  0
 19 44  1  0  0  0  0
 19 45  1  0  0  0  0
M  END
> <PUBCHEM_COMPOUND_CID>
527243
> <PUBCHEM_COMPOUND_CANONICALIZED>
1
> <PUBCHEM_CACTVS_COMPLEXITY>
423
> <PUBCHEM_CACTVS_HBOND_ACCEPTOR>
2
> <PUBCHEM_CACTVS_HBOND_DONOR>
0
> <PUBCHEM_CACTVS_ROTATABLE_BOND>
3
> <PUBCHEM_CACTVS_SUBSKEYS>
AAADceB4MAAAAAAAAAAAAAAAAAAAAYMAAAAwAAAABgAAAGDAAAAAGgAAAAAADwCggAICCAAABACIAgDSCAAAAAAgAAAAAAAAAAgAAAIAAQACAAAEgAAAAAGAwPAPgAAAAAAAAACAAAQAACAAAQAACAAAAA==
> <PUBCHEM_IUPAC_OPENEYE_NAME>
(7,7-dimethyl-6-methylene-2-tricyclo[6.2.1.01,5]undecanyl)methyl acetate
> <PUBCHEM_IUPAC_CAS_NAME>
acetic acid (7,7-dimethyl-6-methylene-2-tricyclo[6.2.1.01,5]undecanyl)methyl ester
> <PUBCHEM_IUPAC_NAME_MARKUP>
(7,7-dimethyl-6-methylidene-2-tricyclo[6.2.1.0<SUP>1,5</SUP>]undecanyl)methyl acetate
> <PUBCHEM_IUPAC_NAME>
(7,7-dimethyl-6-methylidene-2-tricyclo[6.2.1.01,5]undecanyl)methyl acetate
> <PUBCHEM_IUPAC_SYSTEMATIC_NAME>
(7,7-dimethyl-6-methylidene-2-tricyclo[6.2.1.01,5]undecanyl)methyl ethanoate
> <PUBCHEM_IUPAC_TRADITIONAL_NAME>
acetic acid (7,7-dimethyl-6-methylene-2-tricyclo[6.2.1.01,5]undecanyl)methyl ester
> <PUBCHEM_IUPAC_INCHI>
InChI=1S/C17H26O2/c1-11-15-6-5-14(10-19-12(2)18)17(15)8-7-13(9-17)16(11,3)4/h13-15H,1,5-10H2,2-4H3
> <PUBCHEM_IUPAC_INCHIKEY>
BSDFLYIGEBAWIU-UHFFFAOYSA-N
> <PUBCHEM_XLOGP3_AA>
4.2
> <PUBCHEM_EXACT_MASS>
262.193280068
> <PUBCHEM_MOLECULAR_FORMULA>
C17H26O2
> <PUBCHEM_MOLECULAR_WEIGHT>
262.4
> <PUBCHEM_OPENEYE_CAN_SMILES>
CC(=O)OCC1CCC2C13CCC(C3)C(C2=C)(C)C
> <PUBCHEM_OPENEYE_ISO_SMILES>
CC(=O)OCC1CCC2C13CCC(C3)C(C2=C)(C)C
> <PUBCHEM_CACTVS_TPSA>
26.3
> <PUBCHEM_MONOISOTOPIC_WEIGHT>
262.193280068
> <PUBCHEM_TOTAL_CHARGE>
0
> <PUBCHEM_HEAVY_ATOM_COUNT>
19
> <PUBCHEM_ATOM_DEF_STEREO_COUNT>
0
> <PUBCHEM_ATOM_UDEF_STEREO_COUNT>
4
> <PUBCHEM_BOND_DEF_STEREO_COUNT>
0
> <PUBCHEM_BOND_UDEF_STEREO_COUNT>
0
> <PUBCHEM_ISOTOPIC_ATOM_COUNT>
0
> <PUBCHEM_COMPONENT_COUNT>
1
> <PUBCHEM_CACTVS_TAUTO_COUNT>
-1
> <PUBCHEM_COORDINATE_TYPE>
1
5
255
> <PUBCHEM_BONDANNOTATIONS>
3  8  3
4  11  3
5  10  3
7  14  3
$$$$
