527250
  -OEChem-10302200292D
 37 37  0     1  0  0  0  0  0999 V2000
    2.8660    0.2500    0.0000 C   0  0  3  0  0  0  0  0  0  0  0  0
    3.7320    0.7500    0.0000 C   0  0  0  0  0  0  0  0  0  0  0  0
    2.8660   -0.7500    0.0000 C   0  0  0  0  0  0  0  0  0  0  0  0
    2.0000    0.7500    0.0000 C   0  0  0  0  0  0  0  0  0  0  0  0
    3.7320    1.7500    0.0000 C   0  0  0  0  0  0  0  0  0  0  0  0
    4.5981    3.2500    0.0000 C   0  0  0  0  0  0  0  0  0  0  0  0
    4.5981    2.2500    0.0000 C   0  0  0  0  0  0  0  0  0  0  0  0
    2.0000   -1.2500    0.0000 C   0  0  0  0  0  0  0  0  0  0  0  0
    3.7320   -1.2500    0.0000 C   0  0  0  0  0  0  0  0  0  0  0  0
    2.8660   -2.7500    0.0000 C   0  0  0  0  0  0  0  0  0  0  0  0
    2.0000   -2.2500    0.0000 C   0  0  0  0  0  0  0  0  0  0  0  0
    3.7320   -2.2500    0.0000 C   0  0  0  0  0  0  0  0  0  0  0  0
    5.4641    3.7500    0.0000 C   0  0  0  0  0  0  0  0  0  0  0  0
    3.7320    3.7500    0.0000 C   0  0  0  0  0  0  0  0  0  0  0  0
    2.8660   -3.7500    0.0000 C   0  0  0  0  0  0  0  0  0  0  0  0
    2.8660    0.8700    0.0000 H   0  0  0  0  0  0  0  0  0  0  0  0
    3.9441    0.1674    0.0000 H   0  0  0  0  0  0  0  0  0  0  0  0
    4.3426    0.8577    0.0000 H   0  0  0  0  0  0  0  0  0  0  0  0
    2.3100    1.2869    0.0000 H   0  0  0  0  0  0  0  0  0  0  0  0
    1.4631    1.0600    0.0000 H   0  0  0  0  0  0  0  0  0  0  0  0
    1.6900    0.2131    0.0000 H   0  0  0  0  0  0  0  0  0  0  0  0
    3.1951    2.0600    0.0000 H   0  0  0  0  0  0  0  0  0  0  0  0
    4.5981    3.8700    0.0000 H   0  0  0  0  0  0  0  0  0  0  0  0
    5.1350    1.9400    0.0000 H   0  0  0  0  0  0  0  0  0  0  0  0
    1.4631   -0.9400    0.0000 H   0  0  0  0  0  0  0  0  0  0  0  0
    4.2690   -0.9400    0.0000 H   0  0  0  0  0  0  0  0  0  0  0  0
    1.4631   -2.5600    0.0000 H   0  0  0  0  0  0  0  0  0  0  0  0
    4.2690   -2.5600    0.0000 H   0  0  0  0  0  0  0  0  0  0  0  0
    5.7741    3.2131    0.0000 H   0  0  0  0  0  0  0  0  0  0  0  0
    6.0010    4.0600    0.0000 H   0  0  0  0  0  0  0  0  0  0  0  0
    5.1541    4.2869    0.0000 H   0  0  0  0  0  0  0  0  0  0  0  0
    4.0420    4.2869    0.0000 H   0  0  0  0  0  0  0  0  0  0  0  0
    3.1951    4.0600    0.0000 H   0  0  0  0  0  0  0  0  0  0  0  0
    3.4220    3.2131    0.0000 H   0  0  0  0  0  0  0  0  0  0  0  0
    2.2460   -3.7500    0.0000 H   0  0  0  0  0  0  0  0  0  0  0  0
    2.8660   -4.3700    0.0000 H   0  0  0  0  0  0  0  0  0  0  0  0
    3.4860   -3.7500    0.0000 H   0  0  0  0  0  0  0  0  0  0  0  0
  1  2  1  0  0  0  0
  1  3  1  0  0  0  0
  1  4  1  0  0  0  0
  1 16  1  0  0  0  0
  2  5  1  0  0  0  0
  2 17  1  0  0  0  0
  2 18  1  0  0  0  0
  3  8  2  0  0  0  0
  3  9  1  0  0  0  0
  4 19  1  0  0  0  0
  4 20  1  0  0  0  0
  4 21  1  0  0  0  0
  5  7  2  3  0  0  0
  5 22  1  0  0  0  0
  6  7  1  0  0  0  0
  6 13  1  0  0  0  0
  6 14  1  0  0  0  0
  6 23  1  0  0  0  0
  7 24  1  0  0  0  0
  8 11  1  0  0  0  0
  8 25  1  0  0  0  0
  9 12  2  0  0  0  0
  9 26  1  0  0  0  0
 10 11  2  0  0  0  0
 10 12  1  0  0  0  0
 10 15  1  0  0  0  0
 11 27  1  0  0  0  0
 12 28  1  0  0  0  0
 13 29  1  0  0  0  0
 13 30  1  0  0  0  0
 13 31  1  0  0  0  0
 14 32  1  0  0  0  0
 14 33  1  0  0  0  0
 14 34  1  0  0  0  0
 15 35  1  0  0  0  0
 15 36  1  0  0  0  0
 15 37  1  0  0  0  0
M  END
> <PUBCHEM_COMPOUND_CID>
527250
> <PUBCHEM_COMPOUND_CANONICALIZED>
1
> <PUBCHEM_CACTVS_COMPLEXITY>
182
> <PUBCHEM_CACTVS_HBOND_ACCEPTOR>
0
> <PUBCHEM_CACTVS_HBOND_DONOR>
0
> <PUBCHEM_CACTVS_ROTATABLE_BOND>
4
> <PUBCHEM_CACTVS_SUBSKEYS>
AAADceBwAAAAAAAAAAAAAAAAAAAAAAAAAAAwAAAAAAAAAAABAAAAGAAAAAAADQCAGAAyAIAAAACAAiBCAAACAAAgAAAIiAAAAIgIICKAERCAIAAggAAIiAcAgMAOwAAAAAAAAACAAAAAAAAAAAAAAAAAAA==
> <PUBCHEM_IUPAC_OPENEYE_NAME>
1-(1,5-dimethylhex-3-enyl)-4-methyl-benzene
> <PUBCHEM_IUPAC_CAS_NAME>
1-methyl-4-(6-methylhept-4-en-2-yl)benzene
> <PUBCHEM_IUPAC_NAME_MARKUP>
1-methyl-4-(6-methylhept-4-en-2-yl)benzene
> <PUBCHEM_IUPAC_NAME>
1-methyl-4-(6-methylhept-4-en-2-yl)benzene
> <PUBCHEM_IUPAC_SYSTEMATIC_NAME>
1-methyl-4-(6-methylhept-4-en-2-yl)benzene
> <PUBCHEM_IUPAC_TRADITIONAL_NAME>
1-(1,5-dimethylhex-3-enyl)-4-methyl-benzene
> <PUBCHEM_IUPAC_INCHI>
InChI=1S/C15H22/c1-12(2)6-5-7-14(4)15-10-8-13(3)9-11-15/h5-6,8-12,14H,7H2,1-4H3
> <PUBCHEM_IUPAC_INCHIKEY>
VKUJZPYJXUSOEW-UHFFFAOYSA-N
> <PUBCHEM_XLOGP3_AA>
5
> <PUBCHEM_EXACT_MASS>
202.172150702
> <PUBCHEM_MOLECULAR_FORMULA>
C15H22
> <PUBCHEM_MOLECULAR_WEIGHT>
202.33
> <PUBCHEM_OPENEYE_CAN_SMILES>
CC1=CC=C(C=C1)C(C)CC=CC(C)C
> <PUBCHEM_OPENEYE_ISO_SMILES>
CC1=CC=C(C=C1)C(C)CC=CC(C)C
> <PUBCHEM_CACTVS_TPSA>
0
> <PUBCHEM_MONOISOTOPIC_WEIGHT>
202.172150702
> <PUBCHEM_TOTAL_CHARGE>
0
> <PUBCHEM_HEAVY_ATOM_COUNT>
15
> <PUBCHEM_ATOM_DEF_STEREO_COUNT>
0
> <PUBCHEM_ATOM_UDEF_STEREO_COUNT>
1
> <PUBCHEM_BOND_DEF_STEREO_COUNT>
0
> <PUBCHEM_BOND_UDEF_STEREO_COUNT>
1
> <PUBCHEM_ISOTOPIC_ATOM_COUNT>
0
> <PUBCHEM_COMPONENT_COUNT>
1
> <PUBCHEM_CACTVS_TAUTO_COUNT>
-1
> <PUBCHEM_COORDINATE_TYPE>
1
5
255
> <PUBCHEM_BONDANNOTATIONS>
1  4  3
10  11  8
10  12  8
3  8  8
3  9  8
5  7  1
8  11  8
9  12  8
$$$$
