527247
  -OEChem-10302200292D
 39 41  0     1  0  0  0  0  0999 V2000
    4.0984   -0.7554    0.0000 C   0  0  3  0  0  0  0  0  0  0  0  0
    3.1974   -0.3215    0.0000 C   0  0  3  0  0  0  0  0  0  0  0  0
    4.5984    1.4352    0.0000 C   0  0  3  0  0  0  0  0  0  0  0  0
    3.9916    0.4214    0.0000 C   0  0  0  0  0  0  0  0  0  0  0  0
    3.9624   -1.7401    0.0000 C   0  0  3  0  0  0  0  0  0  0  0  0
    4.9994   -0.3215    0.0000 C   0  0  0  0  0  0  0  0  0  0  0  0
    3.5984    1.4352    0.0000 C   0  0  0  0  0  0  0  0  0  0  0  0
    5.2219    0.6534    0.0000 C   0  0  0  0  0  0  0  0  0  0  0  0
    2.5124   -1.0418    0.0000 C   0  0  0  0  0  0  0  0  0  0  0  0
    2.9749    0.6534    0.0000 C   0  0  0  0  0  0  0  0  0  0  0  0
    2.9842   -1.9168    0.0000 C   0  0  0  0  0  0  0  0  0  0  0  0
    4.6840   -2.4324    0.0000 C   0  0  0  0  0  0  0  0  0  0  0  0
    3.6732    2.4324    0.0000 C   0  0  0  0  0  0  0  0  0  0  0  0
    2.7722    1.9986    0.0000 C   0  0  0  0  0  0  0  0  0  0  0  0
    2.0000    0.8759    0.0000 C   0  0  0  0  0  0  0  0  0  0  0  0
    2.5996   -0.1574    0.0000 H   0  0  0  0  0  0  0  0  0  0  0  0
    4.8674    1.9938    0.0000 H   0  0  0  0  0  0  0  0  0  0  0  0
    3.5838    0.8884    0.0000 H   0  0  0  0  0  0  0  0  0  0  0  0
    3.4215    0.1775    0.0000 H   0  0  0  0  0  0  0  0  0  0  0  0
    4.5481   -1.5366    0.0000 H   0  0  0  0  0  0  0  0  0  0  0  0
    5.1374   -0.9260    0.0000 H   0  0  0  0  0  0  0  0  0  0  0  0
    5.6194   -0.3215    0.0000 H   0  0  0  0  0  0  0  0  0  0  0  0
    5.7805    0.3844    0.0000 H   0  0  0  0  0  0  0  0  0  0  0  0
    5.6085    1.1382    0.0000 H   0  0  0  0  0  0  0  0  0  0  0  0
    2.1105   -0.5697    0.0000 H   0  0  0  0  0  0  0  0  0  0  0  0
    2.0006   -1.3918    0.0000 H   0  0  0  0  0  0  0  0  0  0  0  0
    2.4105   -2.1521    0.0000 H   0  0  0  0  0  0  0  0  0  0  0  0
    3.1579   -2.5120    0.0000 H   0  0  0  0  0  0  0  0  0  0  0  0
    4.2548   -2.8798    0.0000 H   0  0  0  0  0  0  0  0  0  0  0  0
    5.1314   -2.8617    0.0000 H   0  0  0  0  0  0  0  0  0  0  0  0
    5.1132   -1.9851    0.0000 H   0  0  0  0  0  0  0  0  0  0  0  0
    4.2914    2.3861    0.0000 H   0  0  0  0  0  0  0  0  0  0  0  0
    3.7195    3.0507    0.0000 H   0  0  0  0  0  0  0  0  0  0  0  0
    3.0549    2.4788    0.0000 H   0  0  0  0  0  0  0  0  0  0  0  0
    3.1214    2.5108    0.0000 H   0  0  0  0  0  0  0  0  0  0  0  0
    2.2599    2.3478    0.0000 H   0  0  0  0  0  0  0  0  0  0  0  0
    2.4229    1.4863    0.0000 H   0  0  0  0  0  0  0  0  0  0  0  0
    1.8172    1.4684    0.0000 H   0  0  0  0  0  0  0  0  0  0  0  0
    1.5783    0.4214    0.0000 H   0  0  0  0  0  0  0  0  0  0  0  0
  1  2  1  0  0  0  0
  1  4  1  0  0  0  0
  1  5  1  0  0  0  0
  1  6  1  0  0  0  0
  2  9  1  0  0  0  0
  2 10  1  0  0  0  0
  2 16  1  0  0  0  0
  3  4  1  0  0  0  0
  3  7  1  0  0  0  0
  3  8  1  0  0  0  0
  3 17  1  0  0  0  0
  4 18  1  0  0  0  0
  4 19  1  0  0  0  0
  5 11  1  0  0  0  0
  5 12  1  0  0  0  0
  5 20  1  0  0  0  0
  6  8  1  0  0  0  0
  6 21  1  0  0  0  0
  6 22  1  0  0  0  0
  7 10  1  0  0  0  0
  7 13  1  0  0  0  0
  7 14  1  0  0  0  0
  8 23  1  0  0  0  0
  8 24  1  0  0  0  0
  9 11  1  0  0  0  0
  9 25  1  0  0  0  0
  9 26  1  0  0  0  0
 10 15  2  0  0  0  0
 11 27  1  0  0  0  0
 11 28  1  0  0  0  0
 12 29  1  0  0  0  0
 12 30  1  0  0  0  0
 12 31  1  0  0  0  0
 13 32  1  0  0  0  0
 13 33  1  0  0  0  0
 13 34  1  0  0  0  0
 14 35  1  0  0  0  0
 14 36  1  0  0  0  0
 14 37  1  0  0  0  0
 15 38  1  0  0  0  0
 15 39  1  0  0  0  0
M  END
> <PUBCHEM_COMPOUND_CID>
527247
> <PUBCHEM_COMPOUND_CANONICALIZED>
1
> <PUBCHEM_CACTVS_COMPLEXITY>
312
> <PUBCHEM_CACTVS_HBOND_ACCEPTOR>
0
> <PUBCHEM_CACTVS_HBOND_DONOR>
0
> <PUBCHEM_CACTVS_ROTATABLE_BOND>
0
> <PUBCHEM_CACTVS_SUBSKEYS>
AAADceBwAAAAAAAAAAAAAAAAAAAAAYMAAAAwAAAABgAAAGDAAAAAGAAAAAAADwCAAAACAAAAAACAAgBCAAAAAAAgAAAAAAAAAAgAAAIAAQAAAAAAgAAAAAEAgMAPgAAAAAAAAACAAAQAACAAAQAACAAAAA==
> <PUBCHEM_IUPAC_OPENEYE_NAME>
2,7,7-trimethyl-6-methylene-tricyclo[6.2.1.01,5]undecane
> <PUBCHEM_IUPAC_CAS_NAME>
2,7,7-trimethyl-6-methylenetricyclo[6.2.1.01,5]undecane
> <PUBCHEM_IUPAC_NAME_MARKUP>
2,7,7-trimethyl-6-methylidenetricyclo[6.2.1.0<SUP>1,5</SUP>]undecane
> <PUBCHEM_IUPAC_NAME>
2,7,7-trimethyl-6-methylidenetricyclo[6.2.1.01,5]undecane
> <PUBCHEM_IUPAC_SYSTEMATIC_NAME>
2,7,7-trimethyl-6-methylidene-tricyclo[6.2.1.01,5]undecane
> <PUBCHEM_IUPAC_TRADITIONAL_NAME>
2,7,7-trimethyl-6-methylene-tricyclo[6.2.1.01,5]undecane
> <PUBCHEM_IUPAC_INCHI>
InChI=1S/C15H24/c1-10-5-6-13-11(2)14(3,4)12-7-8-15(10,13)9-12/h10,12-13H,2,5-9H2,1,3-4H3
> <PUBCHEM_IUPAC_INCHIKEY>
VBZRHXLPRWBPEH-UHFFFAOYSA-N
> <PUBCHEM_XLOGP3_AA>
5.1
> <PUBCHEM_EXACT_MASS>
204.187800766
> <PUBCHEM_MOLECULAR_FORMULA>
C15H24
> <PUBCHEM_MOLECULAR_WEIGHT>
204.35
> <PUBCHEM_OPENEYE_CAN_SMILES>
CC1CCC2C13CCC(C3)C(C2=C)(C)C
> <PUBCHEM_OPENEYE_ISO_SMILES>
CC1CCC2C13CCC(C3)C(C2=C)(C)C
> <PUBCHEM_CACTVS_TPSA>
0
> <PUBCHEM_MONOISOTOPIC_WEIGHT>
204.187800766
> <PUBCHEM_TOTAL_CHARGE>
0
> <PUBCHEM_HEAVY_ATOM_COUNT>
15
> <PUBCHEM_ATOM_DEF_STEREO_COUNT>
0
> <PUBCHEM_ATOM_UDEF_STEREO_COUNT>
4
> <PUBCHEM_BOND_DEF_STEREO_COUNT>
0
> <PUBCHEM_BOND_UDEF_STEREO_COUNT>
0
> <PUBCHEM_ISOTOPIC_ATOM_COUNT>
0
> <PUBCHEM_COMPONENT_COUNT>
1
> <PUBCHEM_CACTVS_TAUTO_COUNT>
-1
> <PUBCHEM_COORDINATE_TYPE>
1
5
255
> <PUBCHEM_BONDANNOTATIONS>
1  6  3
2  9  3
3  8  3
5  12  3
$$$$
