527209
  -OEChem-10302200292D
 40 41  0     1  0  0  0  0  0999 V2000
    2.5369   -0.5000    0.0000 O   0  0  0  0  0  0  0  0  0  0  0  0
    6.8671   -0.0000    0.0000 C   0  0  3  0  0  0  0  0  0  0  0  0
    7.7610   -0.5347    0.0000 C   0  0  3  0  0  0  0  0  0  0  0  0
    6.8671    1.0000    0.0000 C   0  0  0  0  0  0  0  0  0  0  0  0
    6.0010   -0.5000    0.0000 C   0  0  0  0  0  0  0  0  0  0  0  0
    8.6671   -0.0208    0.0000 C   0  0  0  0  0  0  0  0  0  0  0  0
    6.0010    1.5000    0.0000 C   0  0  0  0  0  0  0  0  0  0  0  0
    6.8671   -1.0000    0.0000 C   0  0  0  0  0  0  0  0  0  0  0  0
    5.1350   -0.0000    0.0000 C   0  0  0  0  0  0  0  0  0  0  0  0
    5.1350    1.0000    0.0000 C   0  0  0  0  0  0  0  0  0  0  0  0
    8.6671    1.0208    0.0000 C   0  0  0  0  0  0  0  0  0  0  0  0
    7.7610    1.5346    0.0000 C   0  0  0  0  0  0  0  0  0  0  0  0
    7.7494   -1.5346    0.0000 C   0  0  0  0  0  0  0  0  0  0  0  0
    4.2690   -0.5000    0.0000 C   0  0  0  0  0  0  0  0  0  0  0  0
    3.4030   -0.0000    0.0000 C   0  0  0  0  0  0  0  0  0  0  0  0
    4.2690   -1.5000    0.0000 C   0  0  0  0  0  0  0  0  0  0  0  0
    8.2949   -0.8499    0.0000 H   0  0  0  0  0  0  0  0  0  0  0  0
    5.6025   -0.9750    0.0000 H   0  0  0  0  0  0  0  0  0  0  0  0
    6.3996   -0.9750    0.0000 H   0  0  0  0  0  0  0  0  0  0  0  0
    8.8761   -0.6045    0.0000 H   0  0  0  0  0  0  0  0  0  0  0  0
    9.2779    0.0852    0.0000 H   0  0  0  0  0  0  0  0  0  0  0  0
    6.3996    1.9749    0.0000 H   0  0  0  0  0  0  0  0  0  0  0  0
    5.6025    1.9749    0.0000 H   0  0  0  0  0  0  0  0  0  0  0  0
    6.2471   -1.0000    0.0000 H   0  0  0  0  0  0  0  0  0  0  0  0
    6.8671   -1.6200    0.0000 H   0  0  0  0  0  0  0  0  0  0  0  0
    7.4871   -1.0000    0.0000 H   0  0  0  0  0  0  0  0  0  0  0  0
    4.9230    1.5826    0.0000 H   0  0  0  0  0  0  0  0  0  0  0  0
    4.5244    0.8923    0.0000 H   0  0  0  0  0  0  0  0  0  0  0  0
    9.2779    0.9147    0.0000 H   0  0  0  0  0  0  0  0  0  0  0  0
    8.8761    1.6045    0.0000 H   0  0  0  0  0  0  0  0  0  0  0  0
    7.7538    2.1546    0.0000 H   0  0  0  0  0  0  0  0  0  0  0  0
    7.1295   -1.5275    0.0000 H   0  0  0  0  0  0  0  0  0  0  0  0
    7.7423   -2.1546    0.0000 H   0  0  0  0  0  0  0  0  0  0  0  0
    8.3694   -1.5418    0.0000 H   0  0  0  0  0  0  0  0  0  0  0  0
    3.8015    0.4749    0.0000 H   0  0  0  0  0  0  0  0  0  0  0  0
    3.0044    0.4749    0.0000 H   0  0  0  0  0  0  0  0  0  0  0  0
    3.6490   -1.5000    0.0000 H   0  0  0  0  0  0  0  0  0  0  0  0
    4.2690   -2.1200    0.0000 H   0  0  0  0  0  0  0  0  0  0  0  0
    4.8890   -1.5000    0.0000 H   0  0  0  0  0  0  0  0  0  0  0  0
    2.0000   -0.1900    0.0000 H   0  0  0  0  0  0  0  0  0  0  0  0
  1 15  1  0  0  0  0
  1 40  1  0  0  0  0
  2  3  1  0  0  0  0
  2  4  1  0  0  0  0
  2  5  1  0  0  0  0
  2  8  1  0  0  0  0
  3  6  1  0  0  0  0
  3 13  1  0  0  0  0
  3 17  1  0  0  0  0
  4  7  1  0  0  0  0
  4 12  2  0  0  0  0
  5  9  1  0  0  0  0
  5 18  1  0  0  0  0
  5 19  1  0  0  0  0
  6 11  1  0  0  0  0
  6 20  1  0  0  0  0
  6 21  1  0  0  0  0
  7 10  1  0  0  0  0
  7 22  1  0  0  0  0
  7 23  1  0  0  0  0
  8 24  1  0  0  0  0
  8 25  1  0  0  0  0
  8 26  1  0  0  0  0
  9 10  1  0  0  0  0
  9 14  2  3  0  0  0
 10 27  1  0  0  0  0
 10 28  1  0  0  0  0
 11 12  1  0  0  0  0
 11 29  1  0  0  0  0
 11 30  1  0  0  0  0
 12 31  1  0  0  0  0
 13 32  1  0  0  0  0
 13 33  1  0  0  0  0
 13 34  1  0  0  0  0
 14 15  1  0  0  0  0
 14 16  1  0  0  0  0
 15 35  1  0  0  0  0
 15 36  1  0  0  0  0
 16 37  1  0  0  0  0
 16 38  1  0  0  0  0
 16 39  1  0  0  0  0
M  END
> <PUBCHEM_COMPOUND_CID>
527209
> <PUBCHEM_COMPOUND_CANONICALIZED>
1
> <PUBCHEM_CACTVS_COMPLEXITY>
337
> <PUBCHEM_CACTVS_HBOND_ACCEPTOR>
1
> <PUBCHEM_CACTVS_HBOND_DONOR>
1
> <PUBCHEM_CACTVS_ROTATABLE_BOND>
1
> <PUBCHEM_CACTVS_SUBSKEYS>
AAADceBwIAAAAAAAAAAAAAAAAAAAAAAAAAAwQAAAAAAAAACAAAAAGgAACAAADwCggAICAAAAAgCAAiBCAAAAAAAgAAAACAAAAAgAFAIAAQAAUAAAgAAIEAMAgMAPgAAAAAAAAAAAAAAAAAAAAAAAAAAAAA==
> <PUBCHEM_IUPAC_OPENEYE_NAME>
2-(8,8a-dimethyl-1,3,4,6,7,8-hexahydronaphthalen-2-ylidene)propan-1-ol
> <PUBCHEM_IUPAC_CAS_NAME>
2-(8,8a-dimethyl-1,3,4,6,7,8-hexahydronaphthalen-2-ylidene)-1-propanol
> <PUBCHEM_IUPAC_NAME_MARKUP>
2-(8,8<I>a</I>-dimethyl-1,3,4,6,7,8-hexahydronaphthalen-2-ylidene)propan-1-ol
> <PUBCHEM_IUPAC_NAME>
2-(8,8a-dimethyl-1,3,4,6,7,8-hexahydronaphthalen-2-ylidene)propan-1-ol
> <PUBCHEM_IUPAC_SYSTEMATIC_NAME>
2-(8,8a-dimethyl-1,3,4,6,7,8-hexahydronaphthalen-2-ylidene)propan-1-ol
> <PUBCHEM_IUPAC_TRADITIONAL_NAME>
2-(8,8a-dimethyl-1,3,4,6,7,8-hexahydronaphthalen-2-ylidene)propan-1-ol
> <PUBCHEM_IUPAC_INCHI>
InChI=1S/C15H24O/c1-11(10-16)13-7-8-14-6-4-5-12(2)15(14,3)9-13/h6,12,16H,4-5,7-10H2,1-3H3
> <PUBCHEM_IUPAC_INCHIKEY>
FXWSXJNUPFBCMQ-UHFFFAOYSA-N
> <PUBCHEM_XLOGP3_AA>
3.2
> <PUBCHEM_EXACT_MASS>
220.182715385
> <PUBCHEM_MOLECULAR_FORMULA>
C15H24O
> <PUBCHEM_MOLECULAR_WEIGHT>
220.35
> <PUBCHEM_OPENEYE_CAN_SMILES>
CC1CCC=C2C1(CC(=C(C)CO)CC2)C
> <PUBCHEM_OPENEYE_ISO_SMILES>
CC1CCC=C2C1(CC(=C(C)CO)CC2)C
> <PUBCHEM_CACTVS_TPSA>
20.2
> <PUBCHEM_MONOISOTOPIC_WEIGHT>
220.182715385
> <PUBCHEM_TOTAL_CHARGE>
0
> <PUBCHEM_HEAVY_ATOM_COUNT>
16
> <PUBCHEM_ATOM_DEF_STEREO_COUNT>
0
> <PUBCHEM_ATOM_UDEF_STEREO_COUNT>
2
> <PUBCHEM_BOND_DEF_STEREO_COUNT>
0
> <PUBCHEM_BOND_UDEF_STEREO_COUNT>
1
> <PUBCHEM_ISOTOPIC_ATOM_COUNT>
0
> <PUBCHEM_COMPONENT_COUNT>
1
> <PUBCHEM_CACTVS_TAUTO_COUNT>
-1
> <PUBCHEM_COORDINATE_TYPE>
1
5
255
> <PUBCHEM_BONDANNOTATIONS>
2  8  3
3  13  3
9  14  1
$$$$
