527322
  -OEChem-10302200292D
 38 40  0     1  0  0  0  0  0999 V2000
    4.6701   -4.0352    0.0000 Cl  0  0  0  0  0  0  0  0  0  0  0  0
    8.1244    0.6037    0.0000 O   0  0  0  0  0  0  0  0  0  0  0  0
    6.9654    1.8908    0.0000 O   0  0  0  0  0  0  0  0  0  0  0  0
    3.8611    0.5526    0.0000 N   0  0  0  0  0  0  0  0  0  0  0  0
    5.1701    1.5036    0.0000 N   0  0  0  0  0  0  0  0  0  0  0  0
    4.1701    1.5036    0.0000 C   0  0  3  0  0  0  0  0  0  0  0  0
    4.6701   -0.0352    0.0000 C   0  0  0  0  0  0  0  0  0  0  0  0
    5.4791    0.5526    0.0000 C   0  0  0  0  0  0  0  0  0  0  0  0
    3.5823    2.3126    0.0000 C   0  0  0  0  0  0  0  0  0  0  0  0
    4.6701   -1.0352    0.0000 C   0  0  0  0  0  0  0  0  0  0  0  0
    6.4302    0.2436    0.0000 C   0  0  0  0  0  0  0  0  0  0  0  0
    2.5878    2.2081    0.0000 C   0  0  0  0  0  0  0  0  0  0  0  0
    3.9890    3.2262    0.0000 C   0  0  0  0  0  0  0  0  0  0  0  0
    3.8041   -1.5352    0.0000 C   0  0  0  0  0  0  0  0  0  0  0  0
    5.5361   -1.5352    0.0000 C   0  0  0  0  0  0  0  0  0  0  0  0
    7.1733    0.9127    0.0000 C   0  0  0  0  0  0  0  0  0  0  0  0
    2.0000    3.0171    0.0000 C   0  0  0  0  0  0  0  0  0  0  0  0
    3.4013    4.0352    0.0000 C   0  0  0  0  0  0  0  0  0  0  0  0
    3.8041   -2.5352    0.0000 C   0  0  0  0  0  0  0  0  0  0  0  0
    5.5361   -2.5352    0.0000 C   0  0  0  0  0  0  0  0  0  0  0  0
    2.4067    3.9307    0.0000 C   0  0  0  0  0  0  0  0  0  0  0  0
    4.6701   -3.0352    0.0000 C   0  0  0  0  0  0  0  0  0  0  0  0
    8.8675    1.2728    0.0000 C   0  0  0  0  0  0  0  0  0  0  0  0
    4.4516    2.0561    0.0000 H   0  0  0  0  0  0  0  0  0  0  0  0
    6.1391   -0.3039    0.0000 H   0  0  0  0  0  0  0  0  0  0  0  0
    6.9187   -0.1382    0.0000 H   0  0  0  0  0  0  0  0  0  0  0  0
    2.3356    1.6417    0.0000 H   0  0  0  0  0  0  0  0  0  0  0  0
    4.6056    3.2910    0.0000 H   0  0  0  0  0  0  0  0  0  0  0  0
    3.2671   -1.2252    0.0000 H   0  0  0  0  0  0  0  0  0  0  0  0
    6.0730   -1.2252    0.0000 H   0  0  0  0  0  0  0  0  0  0  0  0
    1.3834    2.9523    0.0000 H   0  0  0  0  0  0  0  0  0  0  0  0
    3.6534    4.6016    0.0000 H   0  0  0  0  0  0  0  0  0  0  0  0
    3.2671   -2.8452    0.0000 H   0  0  0  0  0  0  0  0  0  0  0  0
    6.0730   -2.8452    0.0000 H   0  0  0  0  0  0  0  0  0  0  0  0
    2.0423    4.4323    0.0000 H   0  0  0  0  0  0  0  0  0  0  0  0
    9.2824    0.8121    0.0000 H   0  0  0  0  0  0  0  0  0  0  0  0
    9.3283    1.6877    0.0000 H   0  0  0  0  0  0  0  0  0  0  0  0
    8.4526    1.7336    0.0000 H   0  0  0  0  0  0  0  0  0  0  0  0
  1 22  1  0  0  0  0
  2 16  1  0  0  0  0
  2 23  1  0  0  0  0
  3 16  2  0  0  0  0
  4  6  1  0  0  0  0
  4  7  2  0  0  0  0
  5  6  1  0  0  0  0
  5  8  2  0  0  0  0
  6  9  1  0  0  0  0
  6 24  1  0  0  0  0
  7  8  1  0  0  0  0
  7 10  1  0  0  0  0
  8 11  1  0  0  0  0
  9 12  2  0  0  0  0
  9 13  1  0  0  0  0
 10 14  2  0  0  0  0
 10 15  1  0  0  0  0
 11 16  1  0  0  0  0
 11 25  1  0  0  0  0
 11 26  1  0  0  0  0
 12 17  1  0  0  0  0
 12 27  1  0  0  0  0
 13 18  2  0  0  0  0
 13 28  1  0  0  0  0
 14 19  1  0  0  0  0
 14 29  1  0  0  0  0
 15 20  2  0  0  0  0
 15 30  1  0  0  0  0
 17 21  2  0  0  0  0
 17 31  1  0  0  0  0
 18 21  1  0  0  0  0
 18 32  1  0  0  0  0
 19 22  2  0  0  0  0
 19 33  1  0  0  0  0
 20 22  1  0  0  0  0
 20 34  1  0  0  0  0
 21 35  1  0  0  0  0
 23 36  1  0  0  0  0
 23 37  1  0  0  0  0
 23 38  1  0  0  0  0
M  END
> <PUBCHEM_COMPOUND_CID>
527322
> <PUBCHEM_COMPOUND_CANONICALIZED>
1
> <PUBCHEM_CACTVS_COMPLEXITY>
489
> <PUBCHEM_CACTVS_HBOND_ACCEPTOR>
4
> <PUBCHEM_CACTVS_HBOND_DONOR>
0
> <PUBCHEM_CACTVS_ROTATABLE_BOND>
5
> <PUBCHEM_CACTVS_SUBSKEYS>
AAADccB7MAAEAAAAAAAAAAAAAAAAAQAAAAAwYAAAAAAAAAABQAAAHgIAAAAADArBmCYzCIIABACoAyDyDACCAAAgBQAIiAEwBpgIILKBkxGAIABkgAAIiAeYyLCOBAAAAAAAAAAIAAAAAAAAAAAAAAAAAA==
> <PUBCHEM_IUPAC_OPENEYE_NAME>
methyl 2-[5-(4-chlorophenyl)-2-phenyl-2H-imidazol-4-yl]acetate
> <PUBCHEM_IUPAC_CAS_NAME>
2-[5-(4-chlorophenyl)-2-phenyl-2H-imidazol-4-yl]acetic acid methyl ester
> <PUBCHEM_IUPAC_NAME_MARKUP>
methyl 2-[5-(4-chlorophenyl)-2-phenyl-2<I>H</I>-imidazol-4-yl]acetate
> <PUBCHEM_IUPAC_NAME>
methyl 2-[5-(4-chlorophenyl)-2-phenyl-2H-imidazol-4-yl]acetate
> <PUBCHEM_IUPAC_SYSTEMATIC_NAME>
methyl 2-[5-(4-chlorophenyl)-2-phenyl-2H-imidazol-4-yl]ethanoate
> <PUBCHEM_IUPAC_TRADITIONAL_NAME>
2-[5-(4-chlorophenyl)-2-phenyl-2H-imidazol-4-yl]acetic acid methyl ester
> <PUBCHEM_IUPAC_INCHI>
InChI=1S/C18H15ClN2O2/c1-23-16(22)11-15-17(12-7-9-14(19)10-8-12)21-18(20-15)13-5-3-2-4-6-13/h2-10,18H,11H2,1H3
> <PUBCHEM_IUPAC_INCHIKEY>
BHJIVYQLXBERAM-UHFFFAOYSA-N
> <PUBCHEM_XLOGP3_AA>
3.5
> <PUBCHEM_EXACT_MASS>
326.0822054
> <PUBCHEM_MOLECULAR_FORMULA>
C18H15ClN2O2
> <PUBCHEM_MOLECULAR_WEIGHT>
326.8
> <PUBCHEM_OPENEYE_CAN_SMILES>
COC(=O)CC1=NC(N=C1C2=CC=C(C=C2)Cl)C3=CC=CC=C3
> <PUBCHEM_OPENEYE_ISO_SMILES>
COC(=O)CC1=NC(N=C1C2=CC=C(C=C2)Cl)C3=CC=CC=C3
> <PUBCHEM_CACTVS_TPSA>
51
> <PUBCHEM_MONOISOTOPIC_WEIGHT>
326.0822054
> <PUBCHEM_TOTAL_CHARGE>
0
> <PUBCHEM_HEAVY_ATOM_COUNT>
23
> <PUBCHEM_ATOM_DEF_STEREO_COUNT>
0
> <PUBCHEM_ATOM_UDEF_STEREO_COUNT>
1
> <PUBCHEM_BOND_DEF_STEREO_COUNT>
0
> <PUBCHEM_BOND_UDEF_STEREO_COUNT>
0
> <PUBCHEM_ISOTOPIC_ATOM_COUNT>
0
> <PUBCHEM_COMPONENT_COUNT>
1
> <PUBCHEM_CACTVS_TAUTO_COUNT>
-1
> <PUBCHEM_COORDINATE_TYPE>
1
5
255
> <PUBCHEM_BONDANNOTATIONS>
10  14  8
10  15  8
12  17  8
13  18  8
14  19  8
15  20  8
17  21  8
18  21  8
19  22  8
20  22  8
6  9  3
9  12  8
9  13  8
$$$$
