527319
  -OEChem-10302200292D
 47 49  0     1  0  0  0  0  0999 V2000
    7.4223   -0.7132    0.0000 O   0  0  0  0  0  0  0  0  0  0  0  0
    4.5744    1.3559    0.0000 O   0  0  0  0  0  0  0  0  0  0  0  0
    7.9255    2.9739    0.0000 O   0  0  0  0  0  0  0  0  0  0  0  0
    6.1622    0.5469    0.0000 C   0  0  3  0  0  0  0  0  0  0  0  0
    4.8532   -0.4042    0.0000 C   0  0  3  0  0  0  0  0  0  0  0  0
    5.6622   -0.9920    0.0000 C   0  0  0  0  0  0  0  0  0  0  0  0
    5.1622    0.5469    0.0000 C   0  0  0  0  0  0  0  0  0  0  0  0
    6.4712   -0.4042    0.0000 C   0  0  0  0  0  0  0  0  0  0  0  0
    6.7500    1.3559    0.0000 C   0  0  0  0  0  0  0  0  0  0  0  0
    3.9021   -0.7132    0.0000 C   0  0  0  0  0  0  0  0  0  0  0  0
    5.6622   -1.9920    0.0000 C   0  0  0  0  0  0  0  0  0  0  0  0
    6.3432    2.2694    0.0000 C   0  0  0  0  0  0  0  0  0  0  0  0
    3.6942   -1.6914    0.0000 C   0  0  0  0  0  0  0  0  0  0  0  0
    3.1590   -0.0441    0.0000 C   0  0  0  0  0  0  0  0  0  0  0  0
    6.5282   -2.4920    0.0000 C   0  0  0  0  0  0  0  0  0  0  0  0
    4.7962   -2.4920    0.0000 C   0  0  0  0  0  0  0  0  0  0  0  0
    6.9310    3.0784    0.0000 C   0  0  0  0  0  0  0  0  0  0  0  0
    8.1654   -0.0441    0.0000 C   0  0  0  0  0  0  0  0  0  0  0  0
    2.7431   -2.0004    0.0000 C   0  0  0  0  0  0  0  0  0  0  0  0
    2.2079   -0.3531    0.0000 C   0  0  0  0  0  0  0  0  0  0  0  0
    6.5282   -3.4920    0.0000 C   0  0  0  0  0  0  0  0  0  0  0  0
    4.7962   -3.4920    0.0000 C   0  0  0  0  0  0  0  0  0  0  0  0
    2.0000   -1.3312    0.0000 C   0  0  0  0  0  0  0  0  0  0  0  0
    6.5243    3.9920    0.0000 C   0  0  0  0  0  0  0  0  0  0  0  0
    5.6622   -3.9920    0.0000 C   0  0  0  0  0  0  0  0  0  0  0  0
    6.7746    0.4499    0.0000 H   0  0  0  0  0  0  0  0  0  0  0  0
    4.4148    0.0342    0.0000 H   0  0  0  0  0  0  0  0  0  0  0  0
    7.1807    0.9099    0.0000 H   0  0  0  0  0  0  0  0  0  0  0  0
    7.2640    1.7026    0.0000 H   0  0  0  0  0  0  0  0  0  0  0  0
    5.9126    2.7154    0.0000 H   0  0  0  0  0  0  0  0  0  0  0  0
    5.8292    1.9227    0.0000 H   0  0  0  0  0  0  0  0  0  0  0  0
    4.1550   -2.1062    0.0000 H   0  0  0  0  0  0  0  0  0  0  0  0
    3.2879    0.5624    0.0000 H   0  0  0  0  0  0  0  0  0  0  0  0
    7.0652   -2.1820    0.0000 H   0  0  0  0  0  0  0  0  0  0  0  0
    4.2592   -2.1820    0.0000 H   0  0  0  0  0  0  0  0  0  0  0  0
    8.5803   -0.5048    0.0000 H   0  0  0  0  0  0  0  0  0  0  0  0
    8.6262    0.3708    0.0000 H   0  0  0  0  0  0  0  0  0  0  0  0
    7.7505    0.4167    0.0000 H   0  0  0  0  0  0  0  0  0  0  0  0
    2.6142   -2.6068    0.0000 H   0  0  0  0  0  0  0  0  0  0  0  0
    1.7472    0.0618    0.0000 H   0  0  0  0  0  0  0  0  0  0  0  0
    7.0652   -3.8020    0.0000 H   0  0  0  0  0  0  0  0  0  0  0  0
    4.2592   -3.8020    0.0000 H   0  0  0  0  0  0  0  0  0  0  0  0
    1.4103   -1.5228    0.0000 H   0  0  0  0  0  0  0  0  0  0  0  0
    7.0907    4.2442    0.0000 H   0  0  0  0  0  0  0  0  0  0  0  0
    6.2721    4.5584    0.0000 H   0  0  0  0  0  0  0  0  0  0  0  0
    5.9579    3.7398    0.0000 H   0  0  0  0  0  0  0  0  0  0  0  0
    5.6622   -4.6120    0.0000 H   0  0  0  0  0  0  0  0  0  0  0  0
  1  8  1  0  0  0  0
  1 18  1  0  0  0  0
  2  7  2  0  0  0  0
  3 17  2  0  0  0  0
  4  7  1  0  0  0  0
  4  8  1  0  0  0  0
  4  9  1  0  0  0  0
  4 26  1  0  0  0  0
  5  6  1  0  0  0  0
  5  7  1  0  0  0  0
  5 10  1  0  0  0  0
  5 27  1  0  0  0  0
  6  8  2  0  0  0  0
  6 11  1  0  0  0  0
  9 12  1  0  0  0  0
  9 28  1  0  0  0  0
  9 29  1  0  0  0  0
 10 13  2  0  0  0  0
 10 14  1  0  0  0  0
 11 15  2  0  0  0  0
 11 16  1  0  0  0  0
 12 17  1  0  0  0  0
 12 30  1  0  0  0  0
 12 31  1  0  0  0  0
 13 19  1  0  0  0  0
 13 32  1  0  0  0  0
 14 20  2  0  0  0  0
 14 33  1  0  0  0  0
 15 21  1  0  0  0  0
 15 34  1  0  0  0  0
 16 22  2  0  0  0  0
 16 35  1  0  0  0  0
 17 24  1  0  0  0  0
 18 36  1  0  0  0  0
 18 37  1  0  0  0  0
 18 38  1  0  0  0  0
 19 23  2  0  0  0  0
 19 39  1  0  0  0  0
 20 23  1  0  0  0  0
 20 40  1  0  0  0  0
 21 25  2  0  0  0  0
 21 41  1  0  0  0  0
 22 25  1  0  0  0  0
 22 42  1  0  0  0  0
 23 43  1  0  0  0  0
 24 44  1  0  0  0  0
 24 45  1  0  0  0  0
 24 46  1  0  0  0  0
 25 47  1  0  0  0  0
M  END
> <PUBCHEM_COMPOUND_CID>
527319
> <PUBCHEM_COMPOUND_CANONICALIZED>
1
> <PUBCHEM_CACTVS_COMPLEXITY>
521
> <PUBCHEM_CACTVS_HBOND_ACCEPTOR>
3
> <PUBCHEM_CACTVS_HBOND_DONOR>
0
> <PUBCHEM_CACTVS_ROTATABLE_BOND>
6
> <PUBCHEM_CACTVS_SUBSKEYS>
AAADceB4MAAAAAAAAAAAAAAAAAAAAQAAAAAwYAAAAAAAAAABQAAAGgAAAAAADQSAmAIyAIAABACIAqBSAAACCAAgIAAIiAEAAIgIIDaAFRCAIAAkoAAIiAeIzvCugAAAAAAAAAAAAAAAAAAAAAAAAAAAAA==
> <PUBCHEM_IUPAC_OPENEYE_NAME>
3-methoxy-2-(3-oxobutyl)-4,5-diphenyl-cyclopent-3-en-1-one
> <PUBCHEM_IUPAC_CAS_NAME>
3-methoxy-2-(3-oxobutyl)-4,5-diphenyl-1-cyclopent-3-enone
> <PUBCHEM_IUPAC_NAME_MARKUP>
3-methoxy-2-(3-oxobutyl)-4,5-diphenylcyclopent-3-en-1-one
> <PUBCHEM_IUPAC_NAME>
3-methoxy-2-(3-oxobutyl)-4,5-diphenylcyclopent-3-en-1-one
> <PUBCHEM_IUPAC_SYSTEMATIC_NAME>
3-methoxy-2-(3-oxidanylidenebutyl)-4,5-diphenyl-cyclopent-3-en-1-one
> <PUBCHEM_IUPAC_TRADITIONAL_NAME>
2-(3-ketobutyl)-3-methoxy-4,5-diphenyl-cyclopent-3-en-1-one
> <PUBCHEM_IUPAC_INCHI>
InChI=1S/C22H22O3/c1-15(23)13-14-18-21(24)19(16-9-5-3-6-10-16)20(22(18)25-2)17-11-7-4-8-12-17/h3-12,18-19H,13-14H2,1-2H3
> <PUBCHEM_IUPAC_INCHIKEY>
SYNIYGVOSYJTFL-UHFFFAOYSA-N
> <PUBCHEM_XLOGP3_AA>
3.1
> <PUBCHEM_EXACT_MASS>
334.15689456
> <PUBCHEM_MOLECULAR_FORMULA>
C22H22O3
> <PUBCHEM_MOLECULAR_WEIGHT>
334.4
> <PUBCHEM_OPENEYE_CAN_SMILES>
CC(=O)CCC1C(=O)C(C(=C1OC)C2=CC=CC=C2)C3=CC=CC=C3
> <PUBCHEM_OPENEYE_ISO_SMILES>
CC(=O)CCC1C(=O)C(C(=C1OC)C2=CC=CC=C2)C3=CC=CC=C3
> <PUBCHEM_CACTVS_TPSA>
43.4
> <PUBCHEM_MONOISOTOPIC_WEIGHT>
334.15689456
> <PUBCHEM_TOTAL_CHARGE>
0
> <PUBCHEM_HEAVY_ATOM_COUNT>
25
> <PUBCHEM_ATOM_DEF_STEREO_COUNT>
0
> <PUBCHEM_ATOM_UDEF_STEREO_COUNT>
2
> <PUBCHEM_BOND_DEF_STEREO_COUNT>
0
> <PUBCHEM_BOND_UDEF_STEREO_COUNT>
0
> <PUBCHEM_ISOTOPIC_ATOM_COUNT>
0
> <PUBCHEM_COMPONENT_COUNT>
1
> <PUBCHEM_CACTVS_TAUTO_COUNT>
-1
> <PUBCHEM_COORDINATE_TYPE>
1
5
255
> <PUBCHEM_BONDANNOTATIONS>
10  13  8
10  14  8
11  15  8
11  16  8
13  19  8
14  20  8
15  21  8
16  22  8
19  23  8
20  23  8
21  25  8
22  25  8
4  9  3
5  10  3
$$$$
