527348
  -OEChem-10302200292D
117116  0     1  0  0  0  0  0999 V2000
    2.0000   -0.2500    0.0000 N   0  0  0  0  0  0  0  0  0  0  0  0
   20.1865    0.2500    0.0000 C   0  0  3  0  0  0  0  0  0  0  0  0
   23.6506    0.2500    0.0000 C   0  0  3  0  0  0  0  0  0  0  0  0
   21.0526    0.7500    0.0000 C   0  0  0  0  0  0  0  0  0  0  0  0
   22.7846    0.7500    0.0000 C   0  0  0  0  0  0  0  0  0  0  0  0
   21.9186    0.2500    0.0000 C   0  0  0  0  0  0  0  0  0  0  0  0
   19.3205    0.7500    0.0000 C   0  0  0  0  0  0  0  0  0  0  0  0
   24.5167    0.7500    0.0000 C   0  0  0  0  0  0  0  0  0  0  0  0
   18.4545    0.2500    0.0000 C   0  0  0  0  0  0  0  0  0  0  0  0
   16.7224    0.2500    0.0000 C   0  0  3  0  0  0  0  0  0  0  0  0
   17.5885    0.7500    0.0000 C   0  0  0  0  0  0  0  0  0  0  0  0
   25.3827    0.2500    0.0000 C   0  0  0  0  0  0  0  0  0  0  0  0
   26.2487    0.7500    0.0000 C   0  0  0  0  0  0  0  0  0  0  0  0
   27.1147    0.2500    0.0000 C   0  0  3  0  0  0  0  0  0  0  0  0
   15.8564    0.7500    0.0000 C   0  0  0  0  0  0  0  0  0  0  0  0
   20.1865   -0.7500    0.0000 C   0  0  0  0  0  0  0  0  0  0  0  0
   23.6506   -0.7500    0.0000 C   0  0  0  0  0  0  0  0  0  0  0  0
   27.9808    0.7500    0.0000 C   0  0  0  0  0  0  0  0  0  0  0  0
   14.9904    0.2500    0.0000 C   0  0  0  0  0  0  0  0  0  0  0  0
   16.7224   -0.7500    0.0000 C   0  0  0  0  0  0  0  0  0  0  0  0
   14.1244    0.7500    0.0000 C   0  0  0  0  0  0  0  0  0  0  0  0
   28.8468    0.2500    0.0000 C   0  0  0  0  0  0  0  0  0  0  0  0
   27.1147   -0.7500    0.0000 C   0  0  0  0  0  0  0  0  0  0  0  0
   13.2583    0.2500    0.0000 C   0  0  0  0  0  0  0  0  0  0  0  0
   12.3923    0.7500    0.0000 C   0  0  0  0  0  0  0  0  0  0  0  0
   29.7128    0.7500    0.0000 C   0  0  0  0  0  0  0  0  0  0  0  0
   11.5263    0.2500    0.0000 C   0  0  0  0  0  0  0  0  0  0  0  0
   10.6603    0.7500    0.0000 C   0  0  0  0  0  0  0  0  0  0  0  0
   30.5788    0.2500    0.0000 C   0  0  0  0  0  0  0  0  0  0  0  0
    9.7942    0.2500    0.0000 C   0  0  0  0  0  0  0  0  0  0  0  0
    8.9282    0.7500    0.0000 C   0  0  0  0  0  0  0  0  0  0  0  0
   31.4449    0.7500    0.0000 C   0  0  0  0  0  0  0  0  0  0  0  0
    8.0622    0.2500    0.0000 C   0  0  0  0  0  0  0  0  0  0  0  0
    7.1962    0.7500    0.0000 C   0  0  0  0  0  0  0  0  0  0  0  0
    6.3301    0.2500    0.0000 C   0  0  0  0  0  0  0  0  0  0  0  0
   32.3109    0.2500    0.0000 C   0  0  0  0  0  0  0  0  0  0  0  0
    5.4641    0.7500    0.0000 C   0  0  0  0  0  0  0  0  0  0  0  0
    4.5981    0.2500    0.0000 C   0  0  0  0  0  0  0  0  0  0  0  0
    3.7320    0.7500    0.0000 C   0  0  0  0  0  0  0  0  0  0  0  0
    2.8660    0.2500    0.0000 C   0  0  0  0  0  0  0  0  0  0  0  0
   19.6496   -0.0600    0.0000 H   0  0  0  0  0  0  0  0  0  0  0  0
   24.1876   -0.0600    0.0000 H   0  0  0  0  0  0  0  0  0  0  0  0
   21.4511    1.2250    0.0000 H   0  0  0  0  0  0  0  0  0  0  0  0
   20.6540    1.2250    0.0000 H   0  0  0  0  0  0  0  0  0  0  0  0
   23.1831    1.2250    0.0000 H   0  0  0  0  0  0  0  0  0  0  0  0
   22.3861    1.2250    0.0000 H   0  0  0  0  0  0  0  0  0  0  0  0
   21.5201   -0.2249    0.0000 H   0  0  0  0  0  0  0  0  0  0  0  0
   22.3171   -0.2249    0.0000 H   0  0  0  0  0  0  0  0  0  0  0  0
   19.7190    1.2250    0.0000 H   0  0  0  0  0  0  0  0  0  0  0  0
   18.9220    1.2250    0.0000 H   0  0  0  0  0  0  0  0  0  0  0  0
   24.9152    1.2250    0.0000 H   0  0  0  0  0  0  0  0  0  0  0  0
   24.1181    1.2250    0.0000 H   0  0  0  0  0  0  0  0  0  0  0  0
   18.0560   -0.2249    0.0000 H   0  0  0  0  0  0  0  0  0  0  0  0
   18.8530   -0.2249    0.0000 H   0  0  0  0  0  0  0  0  0  0  0  0
   16.1855   -0.0600    0.0000 H   0  0  0  0  0  0  0  0  0  0  0  0
   17.9870    1.2250    0.0000 H   0  0  0  0  0  0  0  0  0  0  0  0
   17.1899    1.2250    0.0000 H   0  0  0  0  0  0  0  0  0  0  0  0
   24.9842   -0.2249    0.0000 H   0  0  0  0  0  0  0  0  0  0  0  0
   25.7812   -0.2249    0.0000 H   0  0  0  0  0  0  0  0  0  0  0  0
   26.6472    1.2250    0.0000 H   0  0  0  0  0  0  0  0  0  0  0  0
   25.8502    1.2250    0.0000 H   0  0  0  0  0  0  0  0  0  0  0  0
   27.6517   -0.0600    0.0000 H   0  0  0  0  0  0  0  0  0  0  0  0
   16.2549    1.2250    0.0000 H   0  0  0  0  0  0  0  0  0  0  0  0
   15.4579    1.2250    0.0000 H   0  0  0  0  0  0  0  0  0  0  0  0
   19.5665   -0.7500    0.0000 H   0  0  0  0  0  0  0  0  0  0  0  0
   20.1865   -1.3700    0.0000 H   0  0  0  0  0  0  0  0  0  0  0  0
   20.8065   -0.7500    0.0000 H   0  0  0  0  0  0  0  0  0  0  0  0
   23.0306   -0.7500    0.0000 H   0  0  0  0  0  0  0  0  0  0  0  0
   23.6506   -1.3700    0.0000 H   0  0  0  0  0  0  0  0  0  0  0  0
   24.2706   -0.7500    0.0000 H   0  0  0  0  0  0  0  0  0  0  0  0
   28.3793    1.2250    0.0000 H   0  0  0  0  0  0  0  0  0  0  0  0
   27.5822    1.2250    0.0000 H   0  0  0  0  0  0  0  0  0  0  0  0
   14.5919   -0.2249    0.0000 H   0  0  0  0  0  0  0  0  0  0  0  0
   15.3889   -0.2249    0.0000 H   0  0  0  0  0  0  0  0  0  0  0  0
   16.1024   -0.7500    0.0000 H   0  0  0  0  0  0  0  0  0  0  0  0
   16.7224   -1.3700    0.0000 H   0  0  0  0  0  0  0  0  0  0  0  0
   17.3424   -0.7500    0.0000 H   0  0  0  0  0  0  0  0  0  0  0  0
   14.5229    1.2250    0.0000 H   0  0  0  0  0  0  0  0  0  0  0  0
   13.7258    1.2250    0.0000 H   0  0  0  0  0  0  0  0  0  0  0  0
   28.4483   -0.2249    0.0000 H   0  0  0  0  0  0  0  0  0  0  0  0
   29.2453   -0.2249    0.0000 H   0  0  0  0  0  0  0  0  0  0  0  0
   26.4947   -0.7500    0.0000 H   0  0  0  0  0  0  0  0  0  0  0  0
   27.1147   -1.3700    0.0000 H   0  0  0  0  0  0  0  0  0  0  0  0
   27.7347   -0.7500    0.0000 H   0  0  0  0  0  0  0  0  0  0  0  0
   12.8598   -0.2249    0.0000 H   0  0  0  0  0  0  0  0  0  0  0  0
   13.6569   -0.2249    0.0000 H   0  0  0  0  0  0  0  0  0  0  0  0
   12.7908    1.2250    0.0000 H   0  0  0  0  0  0  0  0  0  0  0  0
   11.9938    1.2250    0.0000 H   0  0  0  0  0  0  0  0  0  0  0  0
   30.1113    1.2250    0.0000 H   0  0  0  0  0  0  0  0  0  0  0  0
   29.3143    1.2250    0.0000 H   0  0  0  0  0  0  0  0  0  0  0  0
   11.1278   -0.2249    0.0000 H   0  0  0  0  0  0  0  0  0  0  0  0
   11.9248   -0.2249    0.0000 H   0  0  0  0  0  0  0  0  0  0  0  0
   11.0588    1.2250    0.0000 H   0  0  0  0  0  0  0  0  0  0  0  0
   10.2617    1.2250    0.0000 H   0  0  0  0  0  0  0  0  0  0  0  0
   30.1803   -0.2249    0.0000 H   0  0  0  0  0  0  0  0  0  0  0  0
   30.9774   -0.2249    0.0000 H   0  0  0  0  0  0  0  0  0  0  0  0
    9.3957   -0.2249    0.0000 H   0  0  0  0  0  0  0  0  0  0  0  0
   10.1928   -0.2249    0.0000 H   0  0  0  0  0  0  0  0  0  0  0  0
    9.3267    1.2250    0.0000 H   0  0  0  0  0  0  0  0  0  0  0  0
    8.5297    1.2250    0.0000 H   0  0  0  0  0  0  0  0  0  0  0  0
   31.8434    1.2250    0.0000 H   0  0  0  0  0  0  0  0  0  0  0  0
   31.0463    1.2250    0.0000 H   0  0  0  0  0  0  0  0  0  0  0  0
    7.6636   -0.2249    0.0000 H   0  0  0  0  0  0  0  0  0  0  0  0
    8.4607   -0.2249    0.0000 H   0  0  0  0  0  0  0  0  0  0  0  0
    7.5947    1.2250    0.0000 H   0  0  0  0  0  0  0  0  0  0  0  0
    6.7976    1.2250    0.0000 H   0  0  0  0  0  0  0  0  0  0  0  0
    5.9316   -0.2249    0.0000 H   0  0  0  0  0  0  0  0  0  0  0  0
    6.7287   -0.2249    0.0000 H   0  0  0  0  0  0  0  0  0  0  0  0
   32.0009   -0.2869    0.0000 H   0  0  0  0  0  0  0  0  0  0  0  0
   32.8478   -0.0600    0.0000 H   0  0  0  0  0  0  0  0  0  0  0  0
   32.6209    0.7869    0.0000 H   0  0  0  0  0  0  0  0  0  0  0  0
    5.8626    1.2250    0.0000 H   0  0  0  0  0  0  0  0  0  0  0  0
    5.0656    1.2250    0.0000 H   0  0  0  0  0  0  0  0  0  0  0  0
    4.1996   -0.2249    0.0000 H   0  0  0  0  0  0  0  0  0  0  0  0
    4.9966   -0.2249    0.0000 H   0  0  0  0  0  0  0  0  0  0  0  0
    4.1306    1.2250    0.0000 H   0  0  0  0  0  0  0  0  0  0  0  0
    3.3335    1.2250    0.0000 H   0  0  0  0  0  0  0  0  0  0  0  0
  1 40  3  0  0  0  0
  2  4  1  0  0  0  0
  2  7  1  0  0  0  0
  2 16  1  0  0  0  0
  2 41  1  0  0  0  0
  3  5  1  0  0  0  0
  3  8  1  0  0  0  0
  3 17  1  0  0  0  0
  3 42  1  0  0  0  0
  4  6  1  0  0  0  0
  4 43  1  0  0  0  0
  4 44  1  0  0  0  0
  5  6  1  0  0  0  0
  5 45  1  0  0  0  0
  5 46  1  0  0  0  0
  6 47  1  0  0  0  0
  6 48  1  0  0  0  0
  7  9  1  0  0  0  0
  7 49  1  0  0  0  0
  7 50  1  0  0  0  0
  8 12  1  0  0  0  0
  8 51  1  0  0  0  0
  8 52  1  0  0  0  0
  9 11  1  0  0  0  0
  9 53  1  0  0  0  0
  9 54  1  0  0  0  0
 10 11  1  0  0  0  0
 10 15  1  0  0  0  0
 10 20  1  0  0  0  0
 10 55  1  0  0  0  0
 11 56  1  0  0  0  0
 11 57  1  0  0  0  0
 12 13  1  0  0  0  0
 12 58  1  0  0  0  0
 12 59  1  0  0  0  0
 13 14  1  0  0  0  0
 13 60  1  0  0  0  0
 13 61  1  0  0  0  0
 14 18  1  0  0  0  0
 14 23  1  0  0  0  0
 14 62  1  0  0  0  0
 15 19  1  0  0  0  0
 15 63  1  0  0  0  0
 15 64  1  0  0  0  0
 16 65  1  0  0  0  0
 16 66  1  0  0  0  0
 16 67  1  0  0  0  0
 17 68  1  0  0  0  0
 17 69  1  0  0  0  0
 17 70  1  0  0  0  0
 18 22  1  0  0  0  0
 18 71  1  0  0  0  0
 18 72  1  0  0  0  0
 19 21  1  0  0  0  0
 19 73  1  0  0  0  0
 19 74  1  0  0  0  0
 20 75  1  0  0  0  0
 20 76  1  0  0  0  0
 20 77  1  0  0  0  0
 21 24  1  0  0  0  0
 21 78  1  0  0  0  0
 21 79  1  0  0  0  0
 22 26  1  0  0  0  0
 22 80  1  0  0  0  0
 22 81  1  0  0  0  0
 23 82  1  0  0  0  0
 23 83  1  0  0  0  0
 23 84  1  0  0  0  0
 24 25  1  0  0  0  0
 24 85  1  0  0  0  0
 24 86  1  0  0  0  0
 25 27  1  0  0  0  0
 25 87  1  0  0  0  0
 25 88  1  0  0  0  0
 26 29  1  0  0  0  0
 26 89  1  0  0  0  0
 26 90  1  0  0  0  0
 27 28  1  0  0  0  0
 27 91  1  0  0  0  0
 27 92  1  0  0  0  0
 28 30  1  0  0  0  0
 28 93  1  0  0  0  0
 28 94  1  0  0  0  0
 29 32  1  0  0  0  0
 29 95  1  0  0  0  0
 29 96  1  0  0  0  0
 30 31  1  0  0  0  0
 30 97  1  0  0  0  0
 30 98  1  0  0  0  0
 31 33  1  0  0  0  0
 31 99  1  0  0  0  0
 31100  1  0  0  0  0
 32 36  1  0  0  0  0
 32101  1  0  0  0  0
 32102  1  0  0  0  0
 33 34  1  0  0  0  0
 33103  1  0  0  0  0
 33104  1  0  0  0  0
 34 35  1  0  0  0  0
 34105  1  0  0  0  0
 34106  1  0  0  0  0
 35 37  1  0  0  0  0
 35107  1  0  0  0  0
 35108  1  0  0  0  0
 36109  1  0  0  0  0
 36110  1  0  0  0  0
 36111  1  0  0  0  0
 37 38  1  0  0  0  0
 37112  1  0  0  0  0
 37113  1  0  0  0  0
 38 39  1  0  0  0  0
 38114  1  0  0  0  0
 38115  1  0  0  0  0
 39 40  1  0  0  0  0
 39116  1  0  0  0  0
 39117  1  0  0  0  0
M  END
> <PUBCHEM_COMPOUND_CID>
527348
> <PUBCHEM_COMPOUND_CANONICALIZED>
1
> <PUBCHEM_CACTVS_COMPLEXITY>
530
> <PUBCHEM_CACTVS_HBOND_ACCEPTOR>
1
> <PUBCHEM_CACTVS_HBOND_DONOR>
0
> <PUBCHEM_CACTVS_ROTATABLE_BOND>
32
> <PUBCHEM_CACTVS_SUBSKEYS>
AAADcfB+AAAAAAAAAAAAAAAAAAAAAAAAAAAAAAAAAAAAAAAAAAAAHAAAAAAADQCBAAACAAAAAAAQBAAAAAAAAAAAAAAAAAAAAAAAgAIAAAAAAAAAAAAAAAkAgMAOAAAAAAAAAAAAAAAAAAAAAAAAAAAAAA==
> <PUBCHEM_IUPAC_OPENEYE_NAME>
17,21,25,29-tetramethylpentatriacontanenitrile
> <PUBCHEM_IUPAC_CAS_NAME>
17,21,25,29-tetramethylpentatriacontanenitrile
> <PUBCHEM_IUPAC_NAME_MARKUP>
17,21,25,29-tetramethylpentatriacontanenitrile
> <PUBCHEM_IUPAC_NAME>
17,21,25,29-tetramethylpentatriacontanenitrile
> <PUBCHEM_IUPAC_SYSTEMATIC_NAME>
17,21,25,29-tetramethylpentatriacontanenitrile
> <PUBCHEM_IUPAC_TRADITIONAL_NAME>
17,21,25,29-tetramethylceroplastonitrile
> <PUBCHEM_IUPAC_INCHI>
InChI=1S/C39H77N/c1-6-7-8-21-27-36(2)29-24-31-38(4)33-26-34-39(5)32-25-30-37(3)28-22-19-17-15-13-11-9-10-12-14-16-18-20-23-35-40/h36-39H,6-34H2,1-5H3
> <PUBCHEM_IUPAC_INCHIKEY>
KNMUUJSPBRLSGP-UHFFFAOYSA-N
> <PUBCHEM_XLOGP3>
18.2
> <PUBCHEM_EXACT_MASS>
559.60560146
> <PUBCHEM_MOLECULAR_FORMULA>
C39H77N
> <PUBCHEM_MOLECULAR_WEIGHT>
560.0
> <PUBCHEM_OPENEYE_CAN_SMILES>
CCCCCCC(C)CCCC(C)CCCC(C)CCCC(C)CCCCCCCCCCCCCCCC#N
> <PUBCHEM_OPENEYE_ISO_SMILES>
CCCCCCC(C)CCCC(C)CCCC(C)CCCC(C)CCCCCCCCCCCCCCCC#N
> <PUBCHEM_CACTVS_TPSA>
23.8
> <PUBCHEM_MONOISOTOPIC_WEIGHT>
559.60560146
> <PUBCHEM_TOTAL_CHARGE>
0
> <PUBCHEM_HEAVY_ATOM_COUNT>
40
> <PUBCHEM_ATOM_DEF_STEREO_COUNT>
0
> <PUBCHEM_ATOM_UDEF_STEREO_COUNT>
4
> <PUBCHEM_BOND_DEF_STEREO_COUNT>
0
> <PUBCHEM_BOND_UDEF_STEREO_COUNT>
0
> <PUBCHEM_ISOTOPIC_ATOM_COUNT>
0
> <PUBCHEM_COMPONENT_COUNT>
1
> <PUBCHEM_CACTVS_TAUTO_COUNT>
-1
> <PUBCHEM_COORDINATE_TYPE>
1
5
255
> <PUBCHEM_BONDANNOTATIONS>
10  20  3
14  23  3
2  16  3
3  17  3
$$$$
