527367
  -OEChem-10302200292D
111110  0     1  0  0  0  0  0999 V2000
    2.0000   -0.2500    0.0000 N   0  0  0  0  0  0  0  0  0  0  0  0
   18.4545    0.2500    0.0000 C   0  0  3  0  0  0  0  0  0  0  0  0
   21.9186    0.2500    0.0000 C   0  0  3  0  0  0  0  0  0  0  0  0
   19.3205    0.7500    0.0000 C   0  0  0  0  0  0  0  0  0  0  0  0
   21.0526    0.7500    0.0000 C   0  0  0  0  0  0  0  0  0  0  0  0
   20.1865    0.2500    0.0000 C   0  0  0  0  0  0  0  0  0  0  0  0
   17.5885    0.7500    0.0000 C   0  0  0  0  0  0  0  0  0  0  0  0
   22.7846    0.7500    0.0000 C   0  0  0  0  0  0  0  0  0  0  0  0
   16.7224    0.2500    0.0000 C   0  0  0  0  0  0  0  0  0  0  0  0
   23.6506    0.2500    0.0000 C   0  0  0  0  0  0  0  0  0  0  0  0
   15.8564    0.7500    0.0000 C   0  0  0  0  0  0  0  0  0  0  0  0
   24.5167    0.7500    0.0000 C   0  0  0  0  0  0  0  0  0  0  0  0
   18.4545   -0.7500    0.0000 C   0  0  0  0  0  0  0  0  0  0  0  0
   21.9186   -0.7500    0.0000 C   0  0  0  0  0  0  0  0  0  0  0  0
   14.9904    0.2500    0.0000 C   0  0  0  0  0  0  0  0  0  0  0  0
   25.3827    0.2500    0.0000 C   0  0  0  0  0  0  0  0  0  0  0  0
   14.1244    0.7500    0.0000 C   0  0  0  0  0  0  0  0  0  0  0  0
   13.2583    0.2500    0.0000 C   0  0  0  0  0  0  0  0  0  0  0  0
   26.2487    0.7500    0.0000 C   0  0  0  0  0  0  0  0  0  0  0  0
   12.3923    0.7500    0.0000 C   0  0  0  0  0  0  0  0  0  0  0  0
   27.1147    0.2500    0.0000 C   0  0  0  0  0  0  0  0  0  0  0  0
   11.5263    0.2500    0.0000 C   0  0  0  0  0  0  0  0  0  0  0  0
   10.6603    0.7500    0.0000 C   0  0  0  0  0  0  0  0  0  0  0  0
   27.9808    0.7500    0.0000 C   0  0  0  0  0  0  0  0  0  0  0  0
    9.7942    0.2500    0.0000 C   0  0  0  0  0  0  0  0  0  0  0  0
    8.9282    0.7500    0.0000 C   0  0  0  0  0  0  0  0  0  0  0  0
   28.8468    0.2500    0.0000 C   0  0  0  0  0  0  0  0  0  0  0  0
    8.0622    0.2500    0.0000 C   0  0  0  0  0  0  0  0  0  0  0  0
   29.7128    0.7500    0.0000 C   0  0  0  0  0  0  0  0  0  0  0  0
    7.1962    0.7500    0.0000 C   0  0  0  0  0  0  0  0  0  0  0  0
    6.3301    0.2500    0.0000 C   0  0  0  0  0  0  0  0  0  0  0  0
   30.5788    0.2500    0.0000 C   0  0  0  0  0  0  0  0  0  0  0  0
    5.4641    0.7500    0.0000 C   0  0  0  0  0  0  0  0  0  0  0  0
   31.4449    0.7500    0.0000 C   0  0  0  0  0  0  0  0  0  0  0  0
    4.5981    0.2500    0.0000 C   0  0  0  0  0  0  0  0  0  0  0  0
   32.3109    0.2500    0.0000 C   0  0  0  0  0  0  0  0  0  0  0  0
    3.7320    0.7500    0.0000 C   0  0  0  0  0  0  0  0  0  0  0  0
    2.8660    0.2500    0.0000 C   0  0  0  0  0  0  0  0  0  0  0  0
   18.9914   -0.0600    0.0000 H   0  0  0  0  0  0  0  0  0  0  0  0
   22.4555   -0.0600    0.0000 H   0  0  0  0  0  0  0  0  0  0  0  0
   19.7190    1.2250    0.0000 H   0  0  0  0  0  0  0  0  0  0  0  0
   18.9220    1.2250    0.0000 H   0  0  0  0  0  0  0  0  0  0  0  0
   21.4511    1.2250    0.0000 H   0  0  0  0  0  0  0  0  0  0  0  0
   20.6540    1.2250    0.0000 H   0  0  0  0  0  0  0  0  0  0  0  0
   19.7880   -0.2249    0.0000 H   0  0  0  0  0  0  0  0  0  0  0  0
   20.5851   -0.2249    0.0000 H   0  0  0  0  0  0  0  0  0  0  0  0
   17.9870    1.2250    0.0000 H   0  0  0  0  0  0  0  0  0  0  0  0
   17.1899    1.2250    0.0000 H   0  0  0  0  0  0  0  0  0  0  0  0
   23.1831    1.2250    0.0000 H   0  0  0  0  0  0  0  0  0  0  0  0
   22.3861    1.2250    0.0000 H   0  0  0  0  0  0  0  0  0  0  0  0
   16.3239   -0.2249    0.0000 H   0  0  0  0  0  0  0  0  0  0  0  0
   17.1210   -0.2249    0.0000 H   0  0  0  0  0  0  0  0  0  0  0  0
   23.2521   -0.2249    0.0000 H   0  0  0  0  0  0  0  0  0  0  0  0
   24.0492   -0.2249    0.0000 H   0  0  0  0  0  0  0  0  0  0  0  0
   16.2549    1.2250    0.0000 H   0  0  0  0  0  0  0  0  0  0  0  0
   15.4579    1.2250    0.0000 H   0  0  0  0  0  0  0  0  0  0  0  0
   24.9152    1.2250    0.0000 H   0  0  0  0  0  0  0  0  0  0  0  0
   24.1181    1.2250    0.0000 H   0  0  0  0  0  0  0  0  0  0  0  0
   17.8345   -0.7500    0.0000 H   0  0  0  0  0  0  0  0  0  0  0  0
   18.4545   -1.3700    0.0000 H   0  0  0  0  0  0  0  0  0  0  0  0
   19.0745   -0.7500    0.0000 H   0  0  0  0  0  0  0  0  0  0  0  0
   21.2986   -0.7500    0.0000 H   0  0  0  0  0  0  0  0  0  0  0  0
   21.9186   -1.3700    0.0000 H   0  0  0  0  0  0  0  0  0  0  0  0
   22.5386   -0.7500    0.0000 H   0  0  0  0  0  0  0  0  0  0  0  0
   14.5919   -0.2249    0.0000 H   0  0  0  0  0  0  0  0  0  0  0  0
   15.3889   -0.2249    0.0000 H   0  0  0  0  0  0  0  0  0  0  0  0
   24.9842   -0.2249    0.0000 H   0  0  0  0  0  0  0  0  0  0  0  0
   25.7812   -0.2249    0.0000 H   0  0  0  0  0  0  0  0  0  0  0  0
   14.5229    1.2250    0.0000 H   0  0  0  0  0  0  0  0  0  0  0  0
   13.7258    1.2250    0.0000 H   0  0  0  0  0  0  0  0  0  0  0  0
   12.8598   -0.2249    0.0000 H   0  0  0  0  0  0  0  0  0  0  0  0
   13.6569   -0.2249    0.0000 H   0  0  0  0  0  0  0  0  0  0  0  0
   26.6472    1.2250    0.0000 H   0  0  0  0  0  0  0  0  0  0  0  0
   25.8502    1.2250    0.0000 H   0  0  0  0  0  0  0  0  0  0  0  0
   12.7908    1.2250    0.0000 H   0  0  0  0  0  0  0  0  0  0  0  0
   11.9938    1.2250    0.0000 H   0  0  0  0  0  0  0  0  0  0  0  0
   26.7162   -0.2249    0.0000 H   0  0  0  0  0  0  0  0  0  0  0  0
   27.5133   -0.2249    0.0000 H   0  0  0  0  0  0  0  0  0  0  0  0
   11.1278   -0.2249    0.0000 H   0  0  0  0  0  0  0  0  0  0  0  0
   11.9248   -0.2249    0.0000 H   0  0  0  0  0  0  0  0  0  0  0  0
   11.0588    1.2250    0.0000 H   0  0  0  0  0  0  0  0  0  0  0  0
   10.2617    1.2250    0.0000 H   0  0  0  0  0  0  0  0  0  0  0  0
   28.3793    1.2250    0.0000 H   0  0  0  0  0  0  0  0  0  0  0  0
   27.5822    1.2250    0.0000 H   0  0  0  0  0  0  0  0  0  0  0  0
    9.3957   -0.2249    0.0000 H   0  0  0  0  0  0  0  0  0  0  0  0
   10.1928   -0.2249    0.0000 H   0  0  0  0  0  0  0  0  0  0  0  0
    9.3267    1.2250    0.0000 H   0  0  0  0  0  0  0  0  0  0  0  0
    8.5297    1.2250    0.0000 H   0  0  0  0  0  0  0  0  0  0  0  0
   28.4483   -0.2249    0.0000 H   0  0  0  0  0  0  0  0  0  0  0  0
   29.2453   -0.2249    0.0000 H   0  0  0  0  0  0  0  0  0  0  0  0
    7.6636   -0.2249    0.0000 H   0  0  0  0  0  0  0  0  0  0  0  0
    8.4607   -0.2249    0.0000 H   0  0  0  0  0  0  0  0  0  0  0  0
   30.1113    1.2250    0.0000 H   0  0  0  0  0  0  0  0  0  0  0  0
   29.3143    1.2250    0.0000 H   0  0  0  0  0  0  0  0  0  0  0  0
    7.5947    1.2250    0.0000 H   0  0  0  0  0  0  0  0  0  0  0  0
    6.7976    1.2250    0.0000 H   0  0  0  0  0  0  0  0  0  0  0  0
    5.9316   -0.2249    0.0000 H   0  0  0  0  0  0  0  0  0  0  0  0
    6.7287   -0.2249    0.0000 H   0  0  0  0  0  0  0  0  0  0  0  0
   30.1803   -0.2249    0.0000 H   0  0  0  0  0  0  0  0  0  0  0  0
   30.9774   -0.2249    0.0000 H   0  0  0  0  0  0  0  0  0  0  0  0
    5.8626    1.2250    0.0000 H   0  0  0  0  0  0  0  0  0  0  0  0
    5.0656    1.2250    0.0000 H   0  0  0  0  0  0  0  0  0  0  0  0
   31.8434    1.2250    0.0000 H   0  0  0  0  0  0  0  0  0  0  0  0
   31.0463    1.2250    0.0000 H   0  0  0  0  0  0  0  0  0  0  0  0
    4.1996   -0.2249    0.0000 H   0  0  0  0  0  0  0  0  0  0  0  0
    4.9966   -0.2249    0.0000 H   0  0  0  0  0  0  0  0  0  0  0  0
   32.0009   -0.2869    0.0000 H   0  0  0  0  0  0  0  0  0  0  0  0
   32.8478   -0.0600    0.0000 H   0  0  0  0  0  0  0  0  0  0  0  0
   32.6209    0.7869    0.0000 H   0  0  0  0  0  0  0  0  0  0  0  0
    4.1306    1.2250    0.0000 H   0  0  0  0  0  0  0  0  0  0  0  0
    3.3335    1.2250    0.0000 H   0  0  0  0  0  0  0  0  0  0  0  0
  1 38  3  0  0  0  0
  2  4  1  0  0  0  0
  2  7  1  0  0  0  0
  2 13  1  0  0  0  0
  2 39  1  0  0  0  0
  3  5  1  0  0  0  0
  3  8  1  0  0  0  0
  3 14  1  0  0  0  0
  3 40  1  0  0  0  0
  4  6  1  0  0  0  0
  4 41  1  0  0  0  0
  4 42  1  0  0  0  0
  5  6  1  0  0  0  0
  5 43  1  0  0  0  0
  5 44  1  0  0  0  0
  6 45  1  0  0  0  0
  6 46  1  0  0  0  0
  7  9  1  0  0  0  0
  7 47  1  0  0  0  0
  7 48  1  0  0  0  0
  8 10  1  0  0  0  0
  8 49  1  0  0  0  0
  8 50  1  0  0  0  0
  9 11  1  0  0  0  0
  9 51  1  0  0  0  0
  9 52  1  0  0  0  0
 10 12  1  0  0  0  0
 10 53  1  0  0  0  0
 10 54  1  0  0  0  0
 11 15  1  0  0  0  0
 11 55  1  0  0  0  0
 11 56  1  0  0  0  0
 12 16  1  0  0  0  0
 12 57  1  0  0  0  0
 12 58  1  0  0  0  0
 13 59  1  0  0  0  0
 13 60  1  0  0  0  0
 13 61  1  0  0  0  0
 14 62  1  0  0  0  0
 14 63  1  0  0  0  0
 14 64  1  0  0  0  0
 15 17  1  0  0  0  0
 15 65  1  0  0  0  0
 15 66  1  0  0  0  0
 16 19  1  0  0  0  0
 16 67  1  0  0  0  0
 16 68  1  0  0  0  0
 17 18  1  0  0  0  0
 17 69  1  0  0  0  0
 17 70  1  0  0  0  0
 18 20  1  0  0  0  0
 18 71  1  0  0  0  0
 18 72  1  0  0  0  0
 19 21  1  0  0  0  0
 19 73  1  0  0  0  0
 19 74  1  0  0  0  0
 20 22  1  0  0  0  0
 20 75  1  0  0  0  0
 20 76  1  0  0  0  0
 21 24  1  0  0  0  0
 21 77  1  0  0  0  0
 21 78  1  0  0  0  0
 22 23  1  0  0  0  0
 22 79  1  0  0  0  0
 22 80  1  0  0  0  0
 23 25  1  0  0  0  0
 23 81  1  0  0  0  0
 23 82  1  0  0  0  0
 24 27  1  0  0  0  0
 24 83  1  0  0  0  0
 24 84  1  0  0  0  0
 25 26  1  0  0  0  0
 25 85  1  0  0  0  0
 25 86  1  0  0  0  0
 26 28  1  0  0  0  0
 26 87  1  0  0  0  0
 26 88  1  0  0  0  0
 27 29  1  0  0  0  0
 27 89  1  0  0  0  0
 27 90  1  0  0  0  0
 28 30  1  0  0  0  0
 28 91  1  0  0  0  0
 28 92  1  0  0  0  0
 29 32  1  0  0  0  0
 29 93  1  0  0  0  0
 29 94  1  0  0  0  0
 30 31  1  0  0  0  0
 30 95  1  0  0  0  0
 30 96  1  0  0  0  0
 31 33  1  0  0  0  0
 31 97  1  0  0  0  0
 31 98  1  0  0  0  0
 32 34  1  0  0  0  0
 32 99  1  0  0  0  0
 32100  1  0  0  0  0
 33 35  1  0  0  0  0
 33101  1  0  0  0  0
 33102  1  0  0  0  0
 34 36  1  0  0  0  0
 34103  1  0  0  0  0
 34104  1  0  0  0  0
 35 37  1  0  0  0  0
 35105  1  0  0  0  0
 35106  1  0  0  0  0
 36107  1  0  0  0  0
 36108  1  0  0  0  0
 36109  1  0  0  0  0
 37 38  1  0  0  0  0
 37110  1  0  0  0  0
 37111  1  0  0  0  0
M  END
> <PUBCHEM_COMPOUND_CID>
527367
> <PUBCHEM_COMPOUND_CANONICALIZED>
1
> <PUBCHEM_CACTVS_COMPLEXITY>
474
> <PUBCHEM_CACTVS_HBOND_ACCEPTOR>
1
> <PUBCHEM_CACTVS_HBOND_DONOR>
0
> <PUBCHEM_CACTVS_ROTATABLE_BOND>
32
> <PUBCHEM_CACTVS_SUBSKEYS>
AAADcfB+AAAAAAAAAAAAAAAAAAAAAAAAAAAAAAAAAAAAAAAAAAAAHAAAAAAADQCBAAACAAAAAAAQBAAAAAAAAAAAAAAAAAAAAAAAgAIAAAAAAAAAAAAAAAkAgMAOAAAAAAAAAAAAAAAAAAAAAAAAAAAAAA==
> <PUBCHEM_IUPAC_OPENEYE_NAME>
19,23-dimethylpentatriacontanenitrile
> <PUBCHEM_IUPAC_CAS_NAME>
19,23-dimethylpentatriacontanenitrile
> <PUBCHEM_IUPAC_NAME_MARKUP>
19,23-dimethylpentatriacontanenitrile
> <PUBCHEM_IUPAC_NAME>
19,23-dimethylpentatriacontanenitrile
> <PUBCHEM_IUPAC_SYSTEMATIC_NAME>
19,23-dimethylpentatriacontanenitrile
> <PUBCHEM_IUPAC_TRADITIONAL_NAME>
19,23-dimethylceroplastonitrile
> <PUBCHEM_IUPAC_INCHI>
InChI=1S/C37H73N/c1-4-5-6-7-8-9-18-21-24-27-31-36(2)33-30-34-37(3)32-28-25-22-19-16-14-12-10-11-13-15-17-20-23-26-29-35-38/h36-37H,4-34H2,1-3H3
> <PUBCHEM_IUPAC_INCHIKEY>
SHUHFLPYJWDATQ-UHFFFAOYSA-N
> <PUBCHEM_XLOGP3>
17.7
> <PUBCHEM_EXACT_MASS>
531.57430133
> <PUBCHEM_MOLECULAR_FORMULA>
C37H73N
> <PUBCHEM_MOLECULAR_WEIGHT>
532.0
> <PUBCHEM_OPENEYE_CAN_SMILES>
CCCCCCCCCCCCC(C)CCCC(C)CCCCCCCCCCCCCCCCCC#N
> <PUBCHEM_OPENEYE_ISO_SMILES>
CCCCCCCCCCCCC(C)CCCC(C)CCCCCCCCCCCCCCCCCC#N
> <PUBCHEM_CACTVS_TPSA>
23.8
> <PUBCHEM_MONOISOTOPIC_WEIGHT>
531.57430133
> <PUBCHEM_TOTAL_CHARGE>
0
> <PUBCHEM_HEAVY_ATOM_COUNT>
38
> <PUBCHEM_ATOM_DEF_STEREO_COUNT>
0
> <PUBCHEM_ATOM_UDEF_STEREO_COUNT>
2
> <PUBCHEM_BOND_DEF_STEREO_COUNT>
0
> <PUBCHEM_BOND_UDEF_STEREO_COUNT>
0
> <PUBCHEM_ISOTOPIC_ATOM_COUNT>
0
> <PUBCHEM_COMPONENT_COUNT>
1
> <PUBCHEM_CACTVS_TAUTO_COUNT>
-1
> <PUBCHEM_COORDINATE_TYPE>
1
5
255
> <PUBCHEM_BONDANNOTATIONS>
2  13  3
3  14  3
$$$$
