527326
  -OEChem-10302200292D
 38 39  0     1  0  0  0  0  0999 V2000
    4.5981   -1.7621    0.0000 O   0  0  0  0  0  0  0  0  0  0  0  0
    2.8660   -0.7621    0.0000 O   0  0  0  0  0  0  0  0  0  0  0  0
    9.8602    1.2688    0.0000 O   0  0  0  0  0  0  0  0  0  0  0  0
    9.0000   -0.2346    0.0000 O   0  0  0  0  0  0  0  0  0  0  0  0
    8.1282    1.2621    0.0000 C   0  0  3  0  0  0  0  0  0  0  0  0
    7.2641    0.7587    0.0000 C   0  0  0  0  0  0  0  0  0  0  0  0
    5.4641    0.7379    0.0000 C   0  0  0  0  0  0  0  0  0  0  0  0
    5.4641   -0.2621    0.0000 C   0  0  0  0  0  0  0  0  0  0  0  0
    6.3580    1.2726    0.0000 C   0  0  0  0  0  0  0  0  0  0  0  0
    7.2641   -0.2829    0.0000 C   0  0  0  0  0  0  0  0  0  0  0  0
    6.3580   -0.7967    0.0000 C   0  0  0  0  0  0  0  0  0  0  0  0
    4.5981   -0.7621    0.0000 C   0  0  0  0  0  0  0  0  0  0  0  0
    8.1244    2.2621    0.0000 C   0  0  0  0  0  0  0  0  0  0  0  0
    4.5981    1.2379    0.0000 C   0  0  0  0  0  0  0  0  0  0  0  0
    3.7320   -0.2621    0.0000 C   0  0  0  0  0  0  0  0  0  0  0  0
    8.9962    0.7654    0.0000 C   0  0  0  0  0  0  0  0  0  0  0  0
    3.7320    0.7379    0.0000 C   0  0  0  0  0  0  0  0  0  0  0  0
    3.7320   -2.2621    0.0000 C   0  0  0  0  0  0  0  0  0  0  0  0
    2.0000   -0.2621    0.0000 C   0  0  0  0  0  0  0  0  0  0  0  0
   10.7282    0.7721    0.0000 C   0  0  0  0  0  0  0  0  0  0  0  0
    8.6639    1.5742    0.0000 H   0  0  0  0  0  0  0  0  0  0  0  0
    6.3509    1.8926    0.0000 H   0  0  0  0  0  0  0  0  0  0  0  0
    7.7998   -0.5950    0.0000 H   0  0  0  0  0  0  0  0  0  0  0  0
    6.3509   -1.4167    0.0000 H   0  0  0  0  0  0  0  0  0  0  0  0
    8.7443    2.2645    0.0000 H   0  0  0  0  0  0  0  0  0  0  0  0
    8.1220    2.8821    0.0000 H   0  0  0  0  0  0  0  0  0  0  0  0
    7.5044    2.2597    0.0000 H   0  0  0  0  0  0  0  0  0  0  0  0
    4.5981    1.8579    0.0000 H   0  0  0  0  0  0  0  0  0  0  0  0
    3.1951    1.0479    0.0000 H   0  0  0  0  0  0  0  0  0  0  0  0
    3.4220   -1.7251    0.0000 H   0  0  0  0  0  0  0  0  0  0  0  0
    3.1951   -2.5721    0.0000 H   0  0  0  0  0  0  0  0  0  0  0  0
    4.0420   -2.7990    0.0000 H   0  0  0  0  0  0  0  0  0  0  0  0
    2.3100    0.2749    0.0000 H   0  0  0  0  0  0  0  0  0  0  0  0
    1.4631    0.0479    0.0000 H   0  0  0  0  0  0  0  0  0  0  0  0
    1.6900   -0.7990    0.0000 H   0  0  0  0  0  0  0  0  0  0  0  0
   10.4203    0.2340    0.0000 H   0  0  0  0  0  0  0  0  0  0  0  0
   11.2663    0.4642    0.0000 H   0  0  0  0  0  0  0  0  0  0  0  0
   11.0361    1.3102    0.0000 H   0  0  0  0  0  0  0  0  0  0  0  0
  1 12  1  0  0  0  0
  1 18  1  0  0  0  0
  2 15  1  0  0  0  0
  2 19  1  0  0  0  0
  3 16  1  0  0  0  0
  3 20  1  0  0  0  0
  4 16  2  0  0  0  0
  5  6  1  0  0  0  0
  5 13  1  0  0  0  0
  5 16  1  0  0  0  0
  5 21  1  0  0  0  0
  6  9  2  0  0  0  0
  6 10  1  0  0  0  0
  7  8  2  0  0  0  0
  7  9  1  0  0  0  0
  7 14  1  0  0  0  0
  8 11  1  0  0  0  0
  8 12  1  0  0  0  0
  9 22  1  0  0  0  0
 10 11  2  0  0  0  0
 10 23  1  0  0  0  0
 11 24  1  0  0  0  0
 12 15  2  0  0  0  0
 13 25  1  0  0  0  0
 13 26  1  0  0  0  0
 13 27  1  0  0  0  0
 14 17  2  0  0  0  0
 14 28  1  0  0  0  0
 15 17  1  0  0  0  0
 17 29  1  0  0  0  0
 18 30  1  0  0  0  0
 18 31  1  0  0  0  0
 18 32  1  0  0  0  0
 19 33  1  0  0  0  0
 19 34  1  0  0  0  0
 19 35  1  0  0  0  0
 20 36  1  0  0  0  0
 20 37  1  0  0  0  0
 20 38  1  0  0  0  0
M  END
> <PUBCHEM_COMPOUND_CID>
527326
> <PUBCHEM_COMPOUND_CANONICALIZED>
1
> <PUBCHEM_CACTVS_COMPLEXITY>
330
> <PUBCHEM_CACTVS_HBOND_ACCEPTOR>
4
> <PUBCHEM_CACTVS_HBOND_DONOR>
0
> <PUBCHEM_CACTVS_ROTATABLE_BOND>
5
> <PUBCHEM_CACTVS_SUBSKEYS>
AAADceB4OAAAAAAAAAAAAAAAAAAAAAAAAAAwYAAAAAAAAADBUAAAGgAAAAAADQSAmAIyDsAABACIAiDSCAACCAAgIAAIiAEGiIgNJjKENRqAMCIkwBEKqAeIyPCO4AADAAAYQADAAAYAADCAAAAAAAAAAA==
> <PUBCHEM_IUPAC_OPENEYE_NAME>
methyl 2-(5,6-dimethoxy-2-naphthyl)propanoate
> <PUBCHEM_IUPAC_CAS_NAME>
2-(5,6-dimethoxy-2-naphthalenyl)propanoic acid methyl ester
> <PUBCHEM_IUPAC_NAME_MARKUP>
methyl 2-(5,6-dimethoxynaphthalen-2-yl)propanoate
> <PUBCHEM_IUPAC_NAME>
methyl 2-(5,6-dimethoxynaphthalen-2-yl)propanoate
> <PUBCHEM_IUPAC_SYSTEMATIC_NAME>
methyl 2-(5,6-dimethoxynaphthalen-2-yl)propanoate
> <PUBCHEM_IUPAC_TRADITIONAL_NAME>
2-(5,6-dimethoxy-2-naphthyl)propionic acid methyl ester
> <PUBCHEM_IUPAC_INCHI>
InChI=1S/C16H18O4/c1-10(16(17)20-4)11-5-7-13-12(9-11)6-8-14(18-2)15(13)19-3/h5-10H,1-4H3
> <PUBCHEM_IUPAC_INCHIKEY>
MXDKTYZSLFNANP-UHFFFAOYSA-N
> <PUBCHEM_XLOGP3_AA>
3.5
> <PUBCHEM_EXACT_MASS>
274.12050905
> <PUBCHEM_MOLECULAR_FORMULA>
C16H18O4
> <PUBCHEM_MOLECULAR_WEIGHT>
274.31
> <PUBCHEM_OPENEYE_CAN_SMILES>
CC(C1=CC2=C(C=C1)C(=C(C=C2)OC)OC)C(=O)OC
> <PUBCHEM_OPENEYE_ISO_SMILES>
CC(C1=CC2=C(C=C1)C(=C(C=C2)OC)OC)C(=O)OC
> <PUBCHEM_CACTVS_TPSA>
44.8
> <PUBCHEM_MONOISOTOPIC_WEIGHT>
274.12050905
> <PUBCHEM_TOTAL_CHARGE>
0
> <PUBCHEM_HEAVY_ATOM_COUNT>
20
> <PUBCHEM_ATOM_DEF_STEREO_COUNT>
0
> <PUBCHEM_ATOM_UDEF_STEREO_COUNT>
1
> <PUBCHEM_BOND_DEF_STEREO_COUNT>
0
> <PUBCHEM_BOND_UDEF_STEREO_COUNT>
0
> <PUBCHEM_ISOTOPIC_ATOM_COUNT>
0
> <PUBCHEM_COMPONENT_COUNT>
1
> <PUBCHEM_CACTVS_TAUTO_COUNT>
-1
> <PUBCHEM_COORDINATE_TYPE>
1
5
255
> <PUBCHEM_BONDANNOTATIONS>
10  11  8
12  15  8
14  17  8
15  17  8
5  13  3
6  10  8
6  9  8
7  14  8
7  8  8
7  9  8
8  11  8
8  12  8
$$$$
