527330
  -OEChem-10302200292D
 33 34  0     1  0  0  0  0  0999 V2000
    3.8366    1.1252    0.0000 S   0  0  0  0  0  0  0  0  0  0  0  0
    6.6227    3.2648    0.0000 O   0  0  0  0  0  0  0  0  0  0  0  0
    6.8038    1.5422    0.0000 O   0  0  0  0  0  0  0  0  0  0  0  0
    2.0000    0.1307    0.0000 O   0  0  0  0  0  0  0  0  0  0  0  0
    5.2215    2.2467    0.0000 C   0  0  3  0  0  0  0  0  0  0  0  0
    4.8147    1.3331    0.0000 C   0  0  0  0  0  0  0  0  0  0  0  0
    4.6337    3.0557    0.0000 C   0  0  0  0  0  0  0  0  0  0  0  0
    3.7320    0.1307    0.0000 C   0  0  0  0  0  0  0  0  0  0  0  0
    5.3147    0.4671    0.0000 C   0  0  0  0  0  0  0  0  0  0  0  0
    4.6456   -0.2760    0.0000 C   0  0  0  0  0  0  0  0  0  0  0  0
    6.2160    2.3512    0.0000 C   0  0  0  0  0  0  0  0  0  0  0  0
    2.8660   -0.3693    0.0000 C   0  0  0  0  0  0  0  0  0  0  0  0
    2.8660   -1.3693    0.0000 C   0  0  0  0  0  0  0  0  0  0  0  0
    2.0000   -1.8693    0.0000 C   0  0  0  0  0  0  0  0  0  0  0  0
    3.7320   -1.8693    0.0000 C   0  0  0  0  0  0  0  0  0  0  0  0
    2.0000   -2.8693    0.0000 C   0  0  0  0  0  0  0  0  0  0  0  0
    3.7320   -2.8693    0.0000 C   0  0  0  0  0  0  0  0  0  0  0  0
    2.8660   -3.3693    0.0000 C   0  0  0  0  0  0  0  0  0  0  0  0
    7.6172    3.3693    0.0000 C   0  0  0  0  0  0  0  0  0  0  0  0
    5.4736    2.8131    0.0000 H   0  0  0  0  0  0  0  0  0  0  0  0
    5.1353    3.4201    0.0000 H   0  0  0  0  0  0  0  0  0  0  0  0
    4.2693    3.5573    0.0000 H   0  0  0  0  0  0  0  0  0  0  0  0
    4.1321    2.6913    0.0000 H   0  0  0  0  0  0  0  0  0  0  0  0
    5.9313    0.4023    0.0000 H   0  0  0  0  0  0  0  0  0  0  0  0
    4.7745   -0.8825    0.0000 H   0  0  0  0  0  0  0  0  0  0  0  0
    1.4631   -1.5593    0.0000 H   0  0  0  0  0  0  0  0  0  0  0  0
    4.2690   -1.5593    0.0000 H   0  0  0  0  0  0  0  0  0  0  0  0
    1.4631   -3.1793    0.0000 H   0  0  0  0  0  0  0  0  0  0  0  0
    4.2690   -3.1793    0.0000 H   0  0  0  0  0  0  0  0  0  0  0  0
    2.8660   -3.9893    0.0000 H   0  0  0  0  0  0  0  0  0  0  0  0
    7.6820    2.7527    0.0000 H   0  0  0  0  0  0  0  0  0  0  0  0
    8.2338    3.4341    0.0000 H   0  0  0  0  0  0  0  0  0  0  0  0
    7.5524    3.9859    0.0000 H   0  0  0  0  0  0  0  0  0  0  0  0
  1  6  1  0  0  0  0
  1  8  1  0  0  0  0
  2 11  1  0  0  0  0
  2 19  1  0  0  0  0
  3 11  2  0  0  0  0
  4 12  2  0  0  0  0
  5  6  1  0  0  0  0
  5  7  1  0  0  0  0
  5 11  1  0  0  0  0
  5 20  1  0  0  0  0
  6  9  2  0  0  0  0
  7 21  1  0  0  0  0
  7 22  1  0  0  0  0
  7 23  1  0  0  0  0
  8 10  2  0  0  0  0
  8 12  1  0  0  0  0
  9 10  1  0  0  0  0
  9 24  1  0  0  0  0
 10 25  1  0  0  0  0
 12 13  1  0  0  0  0
 13 14  2  0  0  0  0
 13 15  1  0  0  0  0
 14 16  1  0  0  0  0
 14 26  1  0  0  0  0
 15 17  2  0  0  0  0
 15 27  1  0  0  0  0
 16 18  2  0  0  0  0
 16 28  1  0  0  0  0
 17 18  1  0  0  0  0
 17 29  1  0  0  0  0
 18 30  1  0  0  0  0
 19 31  1  0  0  0  0
 19 32  1  0  0  0  0
 19 33  1  0  0  0  0
M  END
> <PUBCHEM_COMPOUND_CID>
527330
> <PUBCHEM_COMPOUND_CANONICALIZED>
1
> <PUBCHEM_CACTVS_COMPLEXITY>
336
> <PUBCHEM_CACTVS_HBOND_ACCEPTOR>
4
> <PUBCHEM_CACTVS_HBOND_DONOR>
0
> <PUBCHEM_CACTVS_ROTATABLE_BOND>
5
> <PUBCHEM_CACTVS_SUBSKEYS>
AAADccBwMABAAAAAAAAAAAAAAAAAASAAAAAwAAAAAAAAAAABwAAAGgQAAAAADQSA2AIyCYAABAiMAqDSCAADAIAkCBBIiBkAAMgIIDKgFRCAIQAkwAEoiYeIyOCOAAAAAAAAAAAAAAAAAAAAAAAAAAAAAA==
> <PUBCHEM_IUPAC_OPENEYE_NAME>
methyl 2-(5-benzoyl-2-thienyl)propanoate
> <PUBCHEM_IUPAC_CAS_NAME>
2-(5-benzoyl-2-thiophenyl)propanoic acid methyl ester
> <PUBCHEM_IUPAC_NAME_MARKUP>
methyl 2-(5-benzoylthiophen-2-yl)propanoate
> <PUBCHEM_IUPAC_NAME>
methyl 2-(5-benzoylthiophen-2-yl)propanoate
> <PUBCHEM_IUPAC_SYSTEMATIC_NAME>
methyl 2-[5-(phenylcarbonyl)thiophen-2-yl]propanoate
> <PUBCHEM_IUPAC_TRADITIONAL_NAME>
2-(5-benzoyl-2-thienyl)propionic acid methyl ester
> <PUBCHEM_IUPAC_INCHI>
InChI=1S/C15H14O3S/c1-10(15(17)18-2)12-8-9-13(19-12)14(16)11-6-4-3-5-7-11/h3-10H,1-2H3
> <PUBCHEM_IUPAC_INCHIKEY>
LUVJXUXGNTWIHI-UHFFFAOYSA-N
> <PUBCHEM_XLOGP3_AA>
3.7
> <PUBCHEM_EXACT_MASS>
274.06636548
> <PUBCHEM_MOLECULAR_FORMULA>
C15H14O3S
> <PUBCHEM_MOLECULAR_WEIGHT>
274.3
> <PUBCHEM_OPENEYE_CAN_SMILES>
CC(C1=CC=C(S1)C(=O)C2=CC=CC=C2)C(=O)OC
> <PUBCHEM_OPENEYE_ISO_SMILES>
CC(C1=CC=C(S1)C(=O)C2=CC=CC=C2)C(=O)OC
> <PUBCHEM_CACTVS_TPSA>
71.6
> <PUBCHEM_MONOISOTOPIC_WEIGHT>
274.06636548
> <PUBCHEM_TOTAL_CHARGE>
0
> <PUBCHEM_HEAVY_ATOM_COUNT>
19
> <PUBCHEM_ATOM_DEF_STEREO_COUNT>
0
> <PUBCHEM_ATOM_UDEF_STEREO_COUNT>
1
> <PUBCHEM_BOND_DEF_STEREO_COUNT>
0
> <PUBCHEM_BOND_UDEF_STEREO_COUNT>
0
> <PUBCHEM_ISOTOPIC_ATOM_COUNT>
0
> <PUBCHEM_COMPONENT_COUNT>
1
> <PUBCHEM_CACTVS_TAUTO_COUNT>
-1
> <PUBCHEM_COORDINATE_TYPE>
1
5
255
> <PUBCHEM_BONDANNOTATIONS>
1  6  8
1  8  8
13  14  8
13  15  8
14  16  8
15  17  8
16  18  8
17  18  8
5  7  3
6  9  8
8  10  8
9  10  8
$$$$
