527301
  -OEChem-10302200292D
 33 33  0     1  0  0  0  0  0999 V2000
    3.7320    1.2500    0.0000 C   0  0  3  0  0  0  0  0  0  0  0  0
    3.7320    0.2500    0.0000 C   0  0  0  0  0  0  0  0  0  0  0  0
    4.5981    1.7500    0.0000 C   0  0  0  0  0  0  0  0  0  0  0  0
    2.8660   -0.2500    0.0000 C   0  0  0  0  0  0  0  0  0  0  0  0
    4.5981   -0.2500    0.0000 C   0  0  0  0  0  0  0  0  0  0  0  0
    2.8660    1.7500    0.0000 C   0  0  0  0  0  0  0  0  0  0  0  0
    2.8660   -1.2500    0.0000 C   0  0  0  0  0  0  0  0  0  0  0  0
    4.5981   -1.2500    0.0000 C   0  0  0  0  0  0  0  0  0  0  0  0
    3.7320   -1.7500    0.0000 C   0  0  0  0  0  0  0  0  0  0  0  0
    4.5981    2.7500    0.0000 C   0  0  0  0  0  0  0  0  0  0  0  0
    2.0000    0.2500    0.0000 C   0  0  0  0  0  0  0  0  0  0  0  0
    5.4641    0.2500    0.0000 C   0  0  0  0  0  0  0  0  0  0  0  0
    3.7320   -2.7500    0.0000 C   0  0  0  0  0  0  0  0  0  0  0  0
    3.7320    1.8700    0.0000 H   0  0  0  0  0  0  0  0  0  0  0  0
    4.8101    1.1674    0.0000 H   0  0  0  0  0  0  0  0  0  0  0  0
    5.2087    1.8577    0.0000 H   0  0  0  0  0  0  0  0  0  0  0  0
    3.1760    2.2869    0.0000 H   0  0  0  0  0  0  0  0  0  0  0  0
    2.3291    2.0600    0.0000 H   0  0  0  0  0  0  0  0  0  0  0  0
    2.5560    1.2131    0.0000 H   0  0  0  0  0  0  0  0  0  0  0  0
    2.3291   -1.5600    0.0000 H   0  0  0  0  0  0  0  0  0  0  0  0
    5.1350   -1.5600    0.0000 H   0  0  0  0  0  0  0  0  0  0  0  0
    5.2181    2.7500    0.0000 H   0  0  0  0  0  0  0  0  0  0  0  0
    4.5981    3.3700    0.0000 H   0  0  0  0  0  0  0  0  0  0  0  0
    3.9781    2.7500    0.0000 H   0  0  0  0  0  0  0  0  0  0  0  0
    2.3100    0.7869    0.0000 H   0  0  0  0  0  0  0  0  0  0  0  0
    1.4631    0.5600    0.0000 H   0  0  0  0  0  0  0  0  0  0  0  0
    1.6900   -0.2869    0.0000 H   0  0  0  0  0  0  0  0  0  0  0  0
    5.7741   -0.2869    0.0000 H   0  0  0  0  0  0  0  0  0  0  0  0
    6.0010    0.5600    0.0000 H   0  0  0  0  0  0  0  0  0  0  0  0
    5.1541    0.7869    0.0000 H   0  0  0  0  0  0  0  0  0  0  0  0
    3.1120   -2.7500    0.0000 H   0  0  0  0  0  0  0  0  0  0  0  0
    3.7320   -3.3700    0.0000 H   0  0  0  0  0  0  0  0  0  0  0  0
    4.3520   -2.7500    0.0000 H   0  0  0  0  0  0  0  0  0  0  0  0
  1  2  1  0  0  0  0
  1  3  1  0  0  0  0
  1  6  1  0  0  0  0
  1 14  1  0  0  0  0
  2  4  2  0  0  0  0
  2  5  1  0  0  0  0
  3 10  1  0  0  0  0
  3 15  1  0  0  0  0
  3 16  1  0  0  0  0
  4  7  1  0  0  0  0
  4 11  1  0  0  0  0
  5  8  2  0  0  0  0
  5 12  1  0  0  0  0
  6 17  1  0  0  0  0
  6 18  1  0  0  0  0
  6 19  1  0  0  0  0
  7  9  2  0  0  0  0
  7 20  1  0  0  0  0
  8  9  1  0  0  0  0
  8 21  1  0  0  0  0
  9 13  1  0  0  0  0
 10 22  1  0  0  0  0
 10 23  1  0  0  0  0
 10 24  1  0  0  0  0
 11 25  1  0  0  0  0
 11 26  1  0  0  0  0
 11 27  1  0  0  0  0
 12 28  1  0  0  0  0
 12 29  1  0  0  0  0
 12 30  1  0  0  0  0
 13 31  1  0  0  0  0
 13 32  1  0  0  0  0
 13 33  1  0  0  0  0
M  END
> <PUBCHEM_COMPOUND_CID>
527301
> <PUBCHEM_COMPOUND_CANONICALIZED>
1
> <PUBCHEM_CACTVS_COMPLEXITY>
138
> <PUBCHEM_CACTVS_HBOND_ACCEPTOR>
0
> <PUBCHEM_CACTVS_HBOND_DONOR>
0
> <PUBCHEM_CACTVS_ROTATABLE_BOND>
2
> <PUBCHEM_CACTVS_SUBSKEYS>
AAADceBwAAAAAAAAAAAAAAAAAAAAAAAAAAAwAAAAAAAAAAABAAAAGAAAAAAADQCAGAAyAIAAAACAAiBCAAACAAAgAAAAiAAAAIgIICKAERCAIAAggAAIiAcAgMAOwAACAAAQAACAAAQAACAAAAAAAAAAAA==
> <PUBCHEM_IUPAC_OPENEYE_NAME>
1,3,5-trimethyl-2-sec-butyl-benzene
> <PUBCHEM_IUPAC_CAS_NAME>
2-butan-2-yl-1,3,5-trimethylbenzene
> <PUBCHEM_IUPAC_NAME_MARKUP>
2-butan-2-yl-1,3,5-trimethylbenzene
> <PUBCHEM_IUPAC_NAME>
2-butan-2-yl-1,3,5-trimethylbenzene
> <PUBCHEM_IUPAC_SYSTEMATIC_NAME>
2-butan-2-yl-1,3,5-trimethyl-benzene
> <PUBCHEM_IUPAC_TRADITIONAL_NAME>
1,3,5-trimethyl-2-sec-butyl-benzene
> <PUBCHEM_IUPAC_INCHI>
InChI=1S/C13H20/c1-6-10(3)13-11(4)7-9(2)8-12(13)5/h7-8,10H,6H2,1-5H3
> <PUBCHEM_IUPAC_INCHIKEY>
MBHVKXAUTWSICQ-UHFFFAOYSA-N
> <PUBCHEM_XLOGP3_AA>
4.7
> <PUBCHEM_EXACT_MASS>
176.156500638
> <PUBCHEM_MOLECULAR_FORMULA>
C13H20
> <PUBCHEM_MOLECULAR_WEIGHT>
176.30
> <PUBCHEM_OPENEYE_CAN_SMILES>
CCC(C)C1=C(C=C(C=C1C)C)C
> <PUBCHEM_OPENEYE_ISO_SMILES>
CCC(C)C1=C(C=C(C=C1C)C)C
> <PUBCHEM_CACTVS_TPSA>
0
> <PUBCHEM_MONOISOTOPIC_WEIGHT>
176.156500638
> <PUBCHEM_TOTAL_CHARGE>
0
> <PUBCHEM_HEAVY_ATOM_COUNT>
13
> <PUBCHEM_ATOM_DEF_STEREO_COUNT>
0
> <PUBCHEM_ATOM_UDEF_STEREO_COUNT>
1
> <PUBCHEM_BOND_DEF_STEREO_COUNT>
0
> <PUBCHEM_BOND_UDEF_STEREO_COUNT>
0
> <PUBCHEM_ISOTOPIC_ATOM_COUNT>
0
> <PUBCHEM_COMPONENT_COUNT>
1
> <PUBCHEM_CACTVS_TAUTO_COUNT>
-1
> <PUBCHEM_COORDINATE_TYPE>
1
5
255
> <PUBCHEM_BONDANNOTATIONS>
1  6  3
2  4  8
2  5  8
4  7  8
5  8  8
7  9  8
8  9  8
$$$$
