527375
  -OEChem-10302200292D
 96 95  0     1  0  0  0  0  0999 V2000
    2.0000   -0.2500    0.0000 N   0  0  0  0  0  0  0  0  0  0  0  0
   20.1865    0.2500    0.0000 C   0  0  3  0  0  0  0  0  0  0  0  0
   21.0526    0.7500    0.0000 C   0  0  0  0  0  0  0  0  0  0  0  0
   21.9186    0.2500    0.0000 C   0  0  0  0  0  0  0  0  0  0  0  0
   23.6506    0.2500    0.0000 C   0  0  3  0  0  0  0  0  0  0  0  0
   22.7846    0.7500    0.0000 C   0  0  0  0  0  0  0  0  0  0  0  0
   19.3205    0.7500    0.0000 C   0  0  0  0  0  0  0  0  0  0  0  0
   18.4545    0.2500    0.0000 C   0  0  0  0  0  0  0  0  0  0  0  0
   24.5167    0.7500    0.0000 C   0  0  0  0  0  0  0  0  0  0  0  0
   17.5885    0.7500    0.0000 C   0  0  0  0  0  0  0  0  0  0  0  0
   20.1865   -0.7500    0.0000 C   0  0  0  0  0  0  0  0  0  0  0  0
   16.7224    0.2500    0.0000 C   0  0  0  0  0  0  0  0  0  0  0  0
   25.3827    0.2500    0.0000 C   0  0  0  0  0  0  0  0  0  0  0  0
   15.8564    0.7500    0.0000 C   0  0  0  0  0  0  0  0  0  0  0  0
   23.6506   -0.7500    0.0000 C   0  0  0  0  0  0  0  0  0  0  0  0
   14.9904    0.2500    0.0000 C   0  0  0  0  0  0  0  0  0  0  0  0
   14.1244    0.7500    0.0000 C   0  0  0  0  0  0  0  0  0  0  0  0
   13.2583    0.2500    0.0000 C   0  0  0  0  0  0  0  0  0  0  0  0
   26.2487    0.7500    0.0000 C   0  0  0  0  0  0  0  0  0  0  0  0
   12.3923    0.7500    0.0000 C   0  0  0  0  0  0  0  0  0  0  0  0
   11.5263    0.2500    0.0000 C   0  0  0  0  0  0  0  0  0  0  0  0
   10.6603    0.7500    0.0000 C   0  0  0  0  0  0  0  0  0  0  0  0
    9.7942    0.2500    0.0000 C   0  0  0  0  0  0  0  0  0  0  0  0
    8.9282    0.7500    0.0000 C   0  0  0  0  0  0  0  0  0  0  0  0
   27.1147    0.2500    0.0000 C   0  0  0  0  0  0  0  0  0  0  0  0
    8.0622    0.2500    0.0000 C   0  0  0  0  0  0  0  0  0  0  0  0
    7.1962    0.7500    0.0000 C   0  0  0  0  0  0  0  0  0  0  0  0
    6.3301    0.2500    0.0000 C   0  0  0  0  0  0  0  0  0  0  0  0
   27.9808    0.7500    0.0000 C   0  0  0  0  0  0  0  0  0  0  0  0
    5.4641    0.7500    0.0000 C   0  0  0  0  0  0  0  0  0  0  0  0
    4.5981    0.2500    0.0000 C   0  0  0  0  0  0  0  0  0  0  0  0
    3.7320    0.7500    0.0000 C   0  0  0  0  0  0  0  0  0  0  0  0
    2.8660    0.2500    0.0000 C   0  0  0  0  0  0  0  0  0  0  0  0
   19.6496   -0.0600    0.0000 H   0  0  0  0  0  0  0  0  0  0  0  0
   21.4511    1.2250    0.0000 H   0  0  0  0  0  0  0  0  0  0  0  0
   20.6540    1.2250    0.0000 H   0  0  0  0  0  0  0  0  0  0  0  0
   21.5201   -0.2249    0.0000 H   0  0  0  0  0  0  0  0  0  0  0  0
   22.3171   -0.2249    0.0000 H   0  0  0  0  0  0  0  0  0  0  0  0
   24.1876   -0.0600    0.0000 H   0  0  0  0  0  0  0  0  0  0  0  0
   23.1831    1.2250    0.0000 H   0  0  0  0  0  0  0  0  0  0  0  0
   22.3861    1.2250    0.0000 H   0  0  0  0  0  0  0  0  0  0  0  0
   19.7190    1.2250    0.0000 H   0  0  0  0  0  0  0  0  0  0  0  0
   18.9220    1.2250    0.0000 H   0  0  0  0  0  0  0  0  0  0  0  0
   18.0560   -0.2249    0.0000 H   0  0  0  0  0  0  0  0  0  0  0  0
   18.8530   -0.2249    0.0000 H   0  0  0  0  0  0  0  0  0  0  0  0
   24.9152    1.2250    0.0000 H   0  0  0  0  0  0  0  0  0  0  0  0
   24.1181    1.2250    0.0000 H   0  0  0  0  0  0  0  0  0  0  0  0
   17.9870    1.2250    0.0000 H   0  0  0  0  0  0  0  0  0  0  0  0
   17.1899    1.2250    0.0000 H   0  0  0  0  0  0  0  0  0  0  0  0
   19.5665   -0.7500    0.0000 H   0  0  0  0  0  0  0  0  0  0  0  0
   20.1865   -1.3700    0.0000 H   0  0  0  0  0  0  0  0  0  0  0  0
   20.8065   -0.7500    0.0000 H   0  0  0  0  0  0  0  0  0  0  0  0
   16.3239   -0.2249    0.0000 H   0  0  0  0  0  0  0  0  0  0  0  0
   17.1210   -0.2249    0.0000 H   0  0  0  0  0  0  0  0  0  0  0  0
   24.9842   -0.2249    0.0000 H   0  0  0  0  0  0  0  0  0  0  0  0
   25.7812   -0.2249    0.0000 H   0  0  0  0  0  0  0  0  0  0  0  0
   16.2549    1.2250    0.0000 H   0  0  0  0  0  0  0  0  0  0  0  0
   15.4579    1.2250    0.0000 H   0  0  0  0  0  0  0  0  0  0  0  0
   23.0306   -0.7500    0.0000 H   0  0  0  0  0  0  0  0  0  0  0  0
   23.6506   -1.3700    0.0000 H   0  0  0  0  0  0  0  0  0  0  0  0
   24.2706   -0.7500    0.0000 H   0  0  0  0  0  0  0  0  0  0  0  0
   14.5919   -0.2249    0.0000 H   0  0  0  0  0  0  0  0  0  0  0  0
   15.3889   -0.2249    0.0000 H   0  0  0  0  0  0  0  0  0  0  0  0
   14.5229    1.2250    0.0000 H   0  0  0  0  0  0  0  0  0  0  0  0
   13.7258    1.2250    0.0000 H   0  0  0  0  0  0  0  0  0  0  0  0
   12.8598   -0.2249    0.0000 H   0  0  0  0  0  0  0  0  0  0  0  0
   13.6569   -0.2249    0.0000 H   0  0  0  0  0  0  0  0  0  0  0  0
   26.6472    1.2250    0.0000 H   0  0  0  0  0  0  0  0  0  0  0  0
   25.8502    1.2250    0.0000 H   0  0  0  0  0  0  0  0  0  0  0  0
   12.7908    1.2250    0.0000 H   0  0  0  0  0  0  0  0  0  0  0  0
   11.9938    1.2250    0.0000 H   0  0  0  0  0  0  0  0  0  0  0  0
   11.1278   -0.2249    0.0000 H   0  0  0  0  0  0  0  0  0  0  0  0
   11.9248   -0.2249    0.0000 H   0  0  0  0  0  0  0  0  0  0  0  0
   11.0588    1.2250    0.0000 H   0  0  0  0  0  0  0  0  0  0  0  0
   10.2617    1.2250    0.0000 H   0  0  0  0  0  0  0  0  0  0  0  0
    9.3957   -0.2249    0.0000 H   0  0  0  0  0  0  0  0  0  0  0  0
   10.1928   -0.2249    0.0000 H   0  0  0  0  0  0  0  0  0  0  0  0
    9.3267    1.2250    0.0000 H   0  0  0  0  0  0  0  0  0  0  0  0
    8.5297    1.2250    0.0000 H   0  0  0  0  0  0  0  0  0  0  0  0
   26.7162   -0.2249    0.0000 H   0  0  0  0  0  0  0  0  0  0  0  0
   27.5133   -0.2249    0.0000 H   0  0  0  0  0  0  0  0  0  0  0  0
    7.6636   -0.2249    0.0000 H   0  0  0  0  0  0  0  0  0  0  0  0
    8.4607   -0.2249    0.0000 H   0  0  0  0  0  0  0  0  0  0  0  0
    7.5947    1.2250    0.0000 H   0  0  0  0  0  0  0  0  0  0  0  0
    6.7976    1.2250    0.0000 H   0  0  0  0  0  0  0  0  0  0  0  0
    5.9316   -0.2249    0.0000 H   0  0  0  0  0  0  0  0  0  0  0  0
    6.7287   -0.2249    0.0000 H   0  0  0  0  0  0  0  0  0  0  0  0
   28.2908    0.2131    0.0000 H   0  0  0  0  0  0  0  0  0  0  0  0
   28.5177    1.0600    0.0000 H   0  0  0  0  0  0  0  0  0  0  0  0
   27.6708    1.2869    0.0000 H   0  0  0  0  0  0  0  0  0  0  0  0
    5.8626    1.2250    0.0000 H   0  0  0  0  0  0  0  0  0  0  0  0
    5.0656    1.2250    0.0000 H   0  0  0  0  0  0  0  0  0  0  0  0
    4.1996   -0.2249    0.0000 H   0  0  0  0  0  0  0  0  0  0  0  0
    4.9966   -0.2249    0.0000 H   0  0  0  0  0  0  0  0  0  0  0  0
    4.1306    1.2250    0.0000 H   0  0  0  0  0  0  0  0  0  0  0  0
    3.3335    1.2250    0.0000 H   0  0  0  0  0  0  0  0  0  0  0  0
  1 33  3  0  0  0  0
  2  3  1  0  0  0  0
  2  7  1  0  0  0  0
  2 11  1  0  0  0  0
  2 34  1  0  0  0  0
  3  4  1  0  0  0  0
  3 35  1  0  0  0  0
  3 36  1  0  0  0  0
  4  6  1  0  0  0  0
  4 37  1  0  0  0  0
  4 38  1  0  0  0  0
  5  6  1  0  0  0  0
  5  9  1  0  0  0  0
  5 15  1  0  0  0  0
  5 39  1  0  0  0  0
  6 40  1  0  0  0  0
  6 41  1  0  0  0  0
  7  8  1  0  0  0  0
  7 42  1  0  0  0  0
  7 43  1  0  0  0  0
  8 10  1  0  0  0  0
  8 44  1  0  0  0  0
  8 45  1  0  0  0  0
  9 13  1  0  0  0  0
  9 46  1  0  0  0  0
  9 47  1  0  0  0  0
 10 12  1  0  0  0  0
 10 48  1  0  0  0  0
 10 49  1  0  0  0  0
 11 50  1  0  0  0  0
 11 51  1  0  0  0  0
 11 52  1  0  0  0  0
 12 14  1  0  0  0  0
 12 53  1  0  0  0  0
 12 54  1  0  0  0  0
 13 19  1  0  0  0  0
 13 55  1  0  0  0  0
 13 56  1  0  0  0  0
 14 16  1  0  0  0  0
 14 57  1  0  0  0  0
 14 58  1  0  0  0  0
 15 59  1  0  0  0  0
 15 60  1  0  0  0  0
 15 61  1  0  0  0  0
 16 17  1  0  0  0  0
 16 62  1  0  0  0  0
 16 63  1  0  0  0  0
 17 18  1  0  0  0  0
 17 64  1  0  0  0  0
 17 65  1  0  0  0  0
 18 20  1  0  0  0  0
 18 66  1  0  0  0  0
 18 67  1  0  0  0  0
 19 25  1  0  0  0  0
 19 68  1  0  0  0  0
 19 69  1  0  0  0  0
 20 21  1  0  0  0  0
 20 70  1  0  0  0  0
 20 71  1  0  0  0  0
 21 22  1  0  0  0  0
 21 72  1  0  0  0  0
 21 73  1  0  0  0  0
 22 23  1  0  0  0  0
 22 74  1  0  0  0  0
 22 75  1  0  0  0  0
 23 24  1  0  0  0  0
 23 76  1  0  0  0  0
 23 77  1  0  0  0  0
 24 26  1  0  0  0  0
 24 78  1  0  0  0  0
 24 79  1  0  0  0  0
 25 29  1  0  0  0  0
 25 80  1  0  0  0  0
 25 81  1  0  0  0  0
 26 27  1  0  0  0  0
 26 82  1  0  0  0  0
 26 83  1  0  0  0  0
 27 28  1  0  0  0  0
 27 84  1  0  0  0  0
 27 85  1  0  0  0  0
 28 30  1  0  0  0  0
 28 86  1  0  0  0  0
 28 87  1  0  0  0  0
 29 88  1  0  0  0  0
 29 89  1  0  0  0  0
 29 90  1  0  0  0  0
 30 31  1  0  0  0  0
 30 91  1  0  0  0  0
 30 92  1  0  0  0  0
 31 32  1  0  0  0  0
 31 93  1  0  0  0  0
 31 94  1  0  0  0  0
 32 33  1  0  0  0  0
 32 95  1  0  0  0  0
 32 96  1  0  0  0  0
M  END
> <PUBCHEM_COMPOUND_CID>
527375
> <PUBCHEM_COMPOUND_CANONICALIZED>
1
> <PUBCHEM_CACTVS_COMPLEXITY>
406
> <PUBCHEM_CACTVS_HBOND_ACCEPTOR>
1
> <PUBCHEM_CACTVS_HBOND_DONOR>
0
> <PUBCHEM_CACTVS_ROTATABLE_BOND>
27
> <PUBCHEM_CACTVS_SUBSKEYS>
AAADcfB+AAAAAAAAAAAAAAAAAAAAAAAAAAAAAAAAAAAAAAAAAAAAHAAAAAAADQCBAAACAAAAAAAQBAAAAAAAAAAAAAAAAAAAAAAAgAIAAAAAAAAAAAAAAAkAgMAOAAAAAAAAAAAAAAAAAAAAAAAAAAAAAA==
> <PUBCHEM_IUPAC_OPENEYE_NAME>
21,25-dimethyltriacontanenitrile
> <PUBCHEM_IUPAC_CAS_NAME>
21,25-dimethyltriacontanenitrile
> <PUBCHEM_IUPAC_NAME_MARKUP>
21,25-dimethyltriacontanenitrile
> <PUBCHEM_IUPAC_NAME>
21,25-dimethyltriacontanenitrile
> <PUBCHEM_IUPAC_SYSTEMATIC_NAME>
21,25-dimethyltriacontanenitrile
> <PUBCHEM_IUPAC_TRADITIONAL_NAME>
21,25-dimethylmelissonitrile
> <PUBCHEM_IUPAC_INCHI>
InChI=1S/C32H63N/c1-4-5-22-26-31(2)28-25-29-32(3)27-23-20-18-16-14-12-10-8-6-7-9-11-13-15-17-19-21-24-30-33/h31-32H,4-29H2,1-3H3
> <PUBCHEM_IUPAC_INCHIKEY>
IOLJPJKTXWZHTR-UHFFFAOYSA-N
> <PUBCHEM_XLOGP3>
15
> <PUBCHEM_EXACT_MASS>
461.496051014
> <PUBCHEM_MOLECULAR_FORMULA>
C32H63N
> <PUBCHEM_MOLECULAR_WEIGHT>
461.8
> <PUBCHEM_OPENEYE_CAN_SMILES>
CCCCCC(C)CCCC(C)CCCCCCCCCCCCCCCCCCCC#N
> <PUBCHEM_OPENEYE_ISO_SMILES>
CCCCCC(C)CCCC(C)CCCCCCCCCCCCCCCCCCCC#N
> <PUBCHEM_CACTVS_TPSA>
23.8
> <PUBCHEM_MONOISOTOPIC_WEIGHT>
461.496051014
> <PUBCHEM_TOTAL_CHARGE>
0
> <PUBCHEM_HEAVY_ATOM_COUNT>
33
> <PUBCHEM_ATOM_DEF_STEREO_COUNT>
0
> <PUBCHEM_ATOM_UDEF_STEREO_COUNT>
2
> <PUBCHEM_BOND_DEF_STEREO_COUNT>
0
> <PUBCHEM_BOND_UDEF_STEREO_COUNT>
0
> <PUBCHEM_ISOTOPIC_ATOM_COUNT>
0
> <PUBCHEM_COMPONENT_COUNT>
1
> <PUBCHEM_CACTVS_TAUTO_COUNT>
-1
> <PUBCHEM_COORDINATE_TYPE>
1
5
255
> <PUBCHEM_BONDANNOTATIONS>
2  11  3
5  15  3
$$$$
