527442
  -OEChem-10302200292D
 26 25  0     1  0  0  0  0  0999 V2000
    4.5981   -0.5950    0.0000 S   0  0  0  0  0  0  0  0  0  0  0  0
    2.0000    0.9050    0.0000 O   0  0  0  0  0  0  0  0  0  0  0  0
    5.4641    0.9050    0.0000 C   0  0  0  0  0  0  0  0  0  0  0  0
    6.3301    0.4050    0.0000 C   0  0  0  0  0  0  0  0  0  0  0  0
    4.5981    0.4050    0.0000 C   0  0  3  0  0  0  0  0  0  0  0  0
    7.1962    0.9050    0.0000 C   0  0  0  0  0  0  0  0  0  0  0  0
    8.0622    0.4050    0.0000 C   0  0  0  0  0  0  0  0  0  0  0  0
    3.7320    0.9050    0.0000 C   0  0  0  0  0  0  0  0  0  0  0  0
    8.9282    0.9050    0.0000 C   0  0  0  0  0  0  0  0  0  0  0  0
    2.8660    0.4050    0.0000 C   0  0  0  0  0  0  0  0  0  0  0  0
    5.8626    1.3800    0.0000 H   0  0  0  0  0  0  0  0  0  0  0  0
    5.0656    1.3800    0.0000 H   0  0  0  0  0  0  0  0  0  0  0  0
    5.9316   -0.0699    0.0000 H   0  0  0  0  0  0  0  0  0  0  0  0
    6.7287   -0.0699    0.0000 H   0  0  0  0  0  0  0  0  0  0  0  0
    5.3342   -0.0200    0.0000 H   0  0  0  0  0  0  0  0  0  0  0  0
    7.5947    1.3800    0.0000 H   0  0  0  0  0  0  0  0  0  0  0  0
    6.7976    1.3800    0.0000 H   0  0  0  0  0  0  0  0  0  0  0  0
    7.6636   -0.0699    0.0000 H   0  0  0  0  0  0  0  0  0  0  0  0
    8.4607   -0.0699    0.0000 H   0  0  0  0  0  0  0  0  0  0  0  0
    4.1306    1.3800    0.0000 H   0  0  0  0  0  0  0  0  0  0  0  0
    3.3335    1.3800    0.0000 H   0  0  0  0  0  0  0  0  0  0  0  0
    9.2382    0.3681    0.0000 H   0  0  0  0  0  0  0  0  0  0  0  0
    9.4651    1.2150    0.0000 H   0  0  0  0  0  0  0  0  0  0  0  0
    8.6182    1.4419    0.0000 H   0  0  0  0  0  0  0  0  0  0  0  0
    4.0611   -0.9050    0.0000 H   0  0  0  0  0  0  0  0  0  0  0  0
    2.8660   -0.2150    0.0000 H   0  0  0  0  0  0  0  0  0  0  0  0
  1  5  1  0  0  0  0
  1 25  1  0  0  0  0
  2 10  2  0  0  0  0
  3  4  1  0  0  0  0
  3  5  1  0  0  0  0
  3 11  1  0  0  0  0
  3 12  1  0  0  0  0
  4  6  1  0  0  0  0
  4 13  1  0  0  0  0
  4 14  1  0  0  0  0
  5  8  1  0  0  0  0
  5 15  1  0  0  0  0
  6  7  1  0  0  0  0
  6 16  1  0  0  0  0
  6 17  1  0  0  0  0
  7  9  1  0  0  0  0
  7 18  1  0  0  0  0
  7 19  1  0  0  0  0
  8 10  1  0  0  0  0
  8 20  1  0  0  0  0
  8 21  1  0  0  0  0
  9 22  1  0  0  0  0
  9 23  1  0  0  0  0
  9 24  1  0  0  0  0
 10 26  1  0  0  0  0
M  END
> <PUBCHEM_COMPOUND_CID>
527442
> <PUBCHEM_COMPOUND_CANONICALIZED>
1
> <PUBCHEM_CACTVS_COMPLEXITY>
83.3
> <PUBCHEM_CACTVS_HBOND_ACCEPTOR>
2
> <PUBCHEM_CACTVS_HBOND_DONOR>
1
> <PUBCHEM_CACTVS_ROTATABLE_BOND>
6
> <PUBCHEM_CACTVS_SUBSKEYS>
AAADceBwIABAAAAAAAAAAAAAAAAAAAAAAAAAAAAAAAAAAAAAAAAAGgQAAAAACACkwAKCAAAAAAQIAAgQgAAAAAAAAAAAAAEAAAAAABIAAAAAAAAAAAAAAAEIiICAAAAAAAAAAAAAAAAAAAAAAAAAAAAAAA==
> <PUBCHEM_IUPAC_OPENEYE_NAME>
3-sulfanyloctanal
> <PUBCHEM_IUPAC_CAS_NAME>
3-mercaptooctanal
> <PUBCHEM_IUPAC_NAME_MARKUP>
3-sulfanyloctanal
> <PUBCHEM_IUPAC_NAME>
3-sulfanyloctanal
> <PUBCHEM_IUPAC_SYSTEMATIC_NAME>
3-sulfanyloctanal
> <PUBCHEM_IUPAC_TRADITIONAL_NAME>
3-mercaptocaprylaldehyde
> <PUBCHEM_IUPAC_INCHI>
InChI=1S/C8H16OS/c1-2-3-4-5-8(10)6-7-9/h7-8,10H,2-6H2,1H3
> <PUBCHEM_IUPAC_INCHIKEY>
CQZARDZYAZYHBT-UHFFFAOYSA-N
> <PUBCHEM_XLOGP3_AA>
2.3
> <PUBCHEM_EXACT_MASS>
160.09218630
> <PUBCHEM_MOLECULAR_FORMULA>
C8H16OS
> <PUBCHEM_MOLECULAR_WEIGHT>
160.28
> <PUBCHEM_OPENEYE_CAN_SMILES>
CCCCCC(CC=O)S
> <PUBCHEM_OPENEYE_ISO_SMILES>
CCCCCC(CC=O)S
> <PUBCHEM_CACTVS_TPSA>
18.1
> <PUBCHEM_MONOISOTOPIC_WEIGHT>
160.09218630
> <PUBCHEM_TOTAL_CHARGE>
0
> <PUBCHEM_HEAVY_ATOM_COUNT>
10
> <PUBCHEM_ATOM_DEF_STEREO_COUNT>
0
> <PUBCHEM_ATOM_UDEF_STEREO_COUNT>
1
> <PUBCHEM_BOND_DEF_STEREO_COUNT>
0
> <PUBCHEM_BOND_UDEF_STEREO_COUNT>
0
> <PUBCHEM_ISOTOPIC_ATOM_COUNT>
0
> <PUBCHEM_COMPONENT_COUNT>
1
> <PUBCHEM_CACTVS_TAUTO_COUNT>
2
> <PUBCHEM_COORDINATE_TYPE>
1
5
255
> <PUBCHEM_BONDANNOTATIONS>
5  15  3
$$$$
