527489
  -OEChem-10302200292D
 43 45  0     1  0  0  0  0  0999 V2000
    4.7408   -1.1322    0.0000 O   0  0  0  0  0  0  0  0  0  0  0  0
    5.7998   -1.5617    0.0000 O   0  0  0  0  0  0  0  0  0  0  0  0
    5.1967    0.9416    0.0000 C   0  0  3  0  0  0  0  0  0  0  0  0
    5.7584    0.5147    0.0000 C   0  0  3  0  0  0  0  0  0  0  0  0
    5.7359   -0.5637    0.0000 C   0  0  3  0  0  0  0  0  0  0  0  0
    4.4778    1.1438    0.0000 C   0  0  0  0  0  0  0  0  0  0  0  0
    4.1407   -0.5413    0.0000 C   0  0  3  0  0  0  0  0  0  0  0  0
    4.6799    0.1552    0.0000 C   0  0  0  0  0  0  0  0  0  0  0  0
    3.6914    0.4248    0.0000 C   0  0  3  0  0  0  0  0  0  0  0  0
    6.6796    0.3575    0.0000 C   0  0  0  0  0  0  0  0  0  0  0  0
    6.8072   -1.0056    0.0000 C   0  0  0  0  0  0  0  0  0  0  0  0
    7.2637   -0.3166    0.0000 C   0  0  0  0  0  0  0  0  0  0  0  0
    5.6424    1.8368    0.0000 C   0  0  0  0  0  0  0  0  0  0  0  0
    6.1565    1.4320    0.0000 C   0  0  0  0  0  0  0  0  0  0  0  0
    2.7380    0.7265    0.0000 C   0  0  0  0  0  0  0  0  0  0  0  0
    2.0000    0.0517    0.0000 C   0  0  0  0  0  0  0  0  0  0  0  0
    2.5226    1.7031    0.0000 C   0  0  0  0  0  0  0  0  0  0  0  0
    4.7527    1.6995    0.0000 H   0  0  0  0  0  0  0  0  0  0  0  0
    3.9822    1.5164    0.0000 H   0  0  0  0  0  0  0  0  0  0  0  0
    3.6340   -0.8986    0.0000 H   0  0  0  0  0  0  0  0  0  0  0  0
    4.6831    0.7752    0.0000 H   0  0  0  0  0  0  0  0  0  0  0  0
    5.0386   -0.3505    0.0000 H   0  0  0  0  0  0  0  0  0  0  0  0
    3.5579    1.0303    0.0000 H   0  0  0  0  0  0  0  0  0  0  0  0
    7.2458    0.6101    0.0000 H   0  0  0  0  0  0  0  0  0  0  0  0
    6.6021    0.9726    0.0000 H   0  0  0  0  0  0  0  0  0  0  0  0
    6.5342   -1.5623    0.0000 H   0  0  0  0  0  0  0  0  0  0  0  0
    7.3451   -1.3140    0.0000 H   0  0  0  0  0  0  0  0  0  0  0  0
    7.7475   -0.7043    0.0000 H   0  0  0  0  0  0  0  0  0  0  0  0
    7.6936    0.1302    0.0000 H   0  0  0  0  0  0  0  0  0  0  0  0
    6.1974    1.5604    0.0000 H   0  0  0  0  0  0  0  0  0  0  0  0
    5.9188    2.3918    0.0000 H   0  0  0  0  0  0  0  0  0  0  0  0
    5.0874    2.1131    0.0000 H   0  0  0  0  0  0  0  0  0  0  0  0
    6.7253    1.1852    0.0000 H   0  0  0  0  0  0  0  0  0  0  0  0
    6.4034    2.0007    0.0000 H   0  0  0  0  0  0  0  0  0  0  0  0
    5.5878    1.6788    0.0000 H   0  0  0  0  0  0  0  0  0  0  0  0
    2.1469    0.9136    0.0000 H   0  0  0  0  0  0  0  0  0  0  0  0
    6.3554   -1.8368    0.0000 H   0  0  0  0  0  0  0  0  0  0  0  0
    1.5816    0.5093    0.0000 H   0  0  0  0  0  0  0  0  0  0  0  0
    1.5424   -0.3666    0.0000 H   0  0  0  0  0  0  0  0  0  0  0  0
    2.4184   -0.4058    0.0000 H   0  0  0  0  0  0  0  0  0  0  0  0
    3.1281    1.8366    0.0000 H   0  0  0  0  0  0  0  0  0  0  0  0
    2.3891    2.3085    0.0000 H   0  0  0  0  0  0  0  0  0  0  0  0
    1.9172    1.5695    0.0000 H   0  0  0  0  0  0  0  0  0  0  0  0
  1  5  1  0  0  0  0
  1  7  1  0  0  0  0
  2  5  1  0  0  0  0
  2 37  1  0  0  0  0
  3  4  1  0  0  0  0
  3  5  1  0  0  0  0
  3  6  1  0  0  0  0
  3 13  1  0  0  0  0
  4  8  1  0  0  0  0
  4 10  1  0  0  0  0
  4 14  1  0  0  0  0
  5 11  1  0  0  0  0
  6  9  1  0  0  0  0
  6 18  1  0  0  0  0
  6 19  1  0  0  0  0
  7  8  1  0  0  0  0
  7  9  1  0  0  0  0
  7 20  1  0  0  0  0
  8 21  1  0  0  0  0
  8 22  1  0  0  0  0
  9 15  1  0  0  0  0
  9 23  1  0  0  0  0
 10 12  1  0  0  0  0
 10 24  1  0  0  0  0
 10 25  1  0  0  0  0
 11 12  1  0  0  0  0
 11 26  1  0  0  0  0
 11 27  1  0  0  0  0
 12 28  1  0  0  0  0
 12 29  1  0  0  0  0
 13 30  1  0  0  0  0
 13 31  1  0  0  0  0
 13 32  1  0  0  0  0
 14 33  1  0  0  0  0
 14 34  1  0  0  0  0
 14 35  1  0  0  0  0
 15 16  1  0  0  0  0
 15 17  1  0  0  0  0
 15 36  1  0  0  0  0
 16 38  1  0  0  0  0
 16 39  1  0  0  0  0
 16 40  1  0  0  0  0
 17 41  1  0  0  0  0
 17 42  1  0  0  0  0
 17 43  1  0  0  0  0
M  END
> <PUBCHEM_COMPOUND_CID>
527489
> <PUBCHEM_COMPOUND_CANONICALIZED>
1
> <PUBCHEM_CACTVS_COMPLEXITY>
340
> <PUBCHEM_CACTVS_HBOND_ACCEPTOR>
2
> <PUBCHEM_CACTVS_HBOND_DONOR>
1
> <PUBCHEM_CACTVS_ROTATABLE_BOND>
1
> <PUBCHEM_CACTVS_SUBSKEYS>
AAADceBwMAAAAAAAAAAAAAAAAAAAAAAAAAA0aIEAAAASAAAAAAAAGgAACAAADxSggAICCAAABgAAAAAAAAAAAAAAAAAAAAAAAAAQAAIAAAACQAAEAAAEAAGA4PQPgAAAAAAAAADAAAYAADAAAAAAAAAAAA==
> <PUBCHEM_IUPAC_OPENEYE_NAME>
10-isopropyl-7,8-dimethyl-2-oxatricyclo[5.3.1.03,8]undecan-3-ol
> <PUBCHEM_IUPAC_CAS_NAME>
7,8-dimethyl-10-propan-2-yl-2-oxatricyclo[5.3.1.03,8]undecan-3-ol
> <PUBCHEM_IUPAC_NAME_MARKUP>
7,8-dimethyl-10-propan-2-yl-2-oxatricyclo[5.3.1.0<SUP>3,8</SUP>]undecan-3-ol
> <PUBCHEM_IUPAC_NAME>
7,8-dimethyl-10-propan-2-yl-2-oxatricyclo[5.3.1.03,8]undecan-3-ol
> <PUBCHEM_IUPAC_SYSTEMATIC_NAME>
7,8-dimethyl-10-propan-2-yl-2-oxatricyclo[5.3.1.03,8]undecan-3-ol
> <PUBCHEM_IUPAC_TRADITIONAL_NAME>
10-isopropyl-7,8-dimethyl-2-oxatricyclo[5.3.1.03,8]undecan-3-ol
> <PUBCHEM_IUPAC_INCHI>
InChI=1S/C15H26O2/c1-10(2)11-8-14(4)13(3)6-5-7-15(14,16)17-12(11)9-13/h10-12,16H,5-9H2,1-4H3
> <PUBCHEM_IUPAC_INCHIKEY>
UTNQUNGFEKWBQT-UHFFFAOYSA-N
> <PUBCHEM_XLOGP3_AA>
3.6
> <PUBCHEM_EXACT_MASS>
238.193280068
> <PUBCHEM_MOLECULAR_FORMULA>
C15H26O2
> <PUBCHEM_MOLECULAR_WEIGHT>
238.37
> <PUBCHEM_OPENEYE_CAN_SMILES>
CC(C)C1CC2(C3(CCCC2(OC1C3)O)C)C
> <PUBCHEM_OPENEYE_ISO_SMILES>
CC(C)C1CC2(C3(CCCC2(OC1C3)O)C)C
> <PUBCHEM_CACTVS_TPSA>
29.5
> <PUBCHEM_MONOISOTOPIC_WEIGHT>
238.193280068
> <PUBCHEM_TOTAL_CHARGE>
0
> <PUBCHEM_HEAVY_ATOM_COUNT>
17
> <PUBCHEM_ATOM_DEF_STEREO_COUNT>
0
> <PUBCHEM_ATOM_UDEF_STEREO_COUNT>
5
> <PUBCHEM_BOND_DEF_STEREO_COUNT>
0
> <PUBCHEM_BOND_UDEF_STEREO_COUNT>
0
> <PUBCHEM_ISOTOPIC_ATOM_COUNT>
0
> <PUBCHEM_COMPONENT_COUNT>
1
> <PUBCHEM_CACTVS_TAUTO_COUNT>
-1
> <PUBCHEM_COORDINATE_TYPE>
1
5
255
> <PUBCHEM_BONDANNOTATIONS>
5  2  3
3  13  3
4  14  3
7  8  3
9  15  3
$$$$
