527447
  -OEChem-10302200292D
 17 16  0     1  0  0  0  0  0999 V2000
    2.5369    1.0000    0.0000 S   0  0  0  0  0  0  0  0  0  0  0  0
    6.0010    1.0000    0.0000 O   0  0  0  0  0  0  0  0  0  0  0  0
    3.4030    0.5000    0.0000 C   0  0  3  0  0  0  0  0  0  0  0  0
    3.4030   -0.5000    0.0000 C   0  0  0  0  0  0  0  0  0  0  0  0
    4.2690    1.0000    0.0000 C   0  0  0  0  0  0  0  0  0  0  0  0
    2.5369   -1.0000    0.0000 C   0  0  0  0  0  0  0  0  0  0  0  0
    5.1350    0.5000    0.0000 C   0  0  0  0  0  0  0  0  0  0  0  0
    3.4030    1.1200    0.0000 H   0  0  0  0  0  0  0  0  0  0  0  0
    3.6150   -1.0826    0.0000 H   0  0  0  0  0  0  0  0  0  0  0  0
    4.0135   -0.3923    0.0000 H   0  0  0  0  0  0  0  0  0  0  0  0
    4.6675    1.4750    0.0000 H   0  0  0  0  0  0  0  0  0  0  0  0
    3.8705    1.4750    0.0000 H   0  0  0  0  0  0  0  0  0  0  0  0
    2.2269   -0.4631    0.0000 H   0  0  0  0  0  0  0  0  0  0  0  0
    2.0000   -1.3100    0.0000 H   0  0  0  0  0  0  0  0  0  0  0  0
    2.8469   -1.5369    0.0000 H   0  0  0  0  0  0  0  0  0  0  0  0
    2.0000    0.6900    0.0000 H   0  0  0  0  0  0  0  0  0  0  0  0
    5.1350   -0.1200    0.0000 H   0  0  0  0  0  0  0  0  0  0  0  0
  1  3  1  0  0  0  0
  1 16  1  0  0  0  0
  2  7  2  0  0  0  0
  3  4  1  0  0  0  0
  3  5  1  0  0  0  0
  3  8  1  0  0  0  0
  4  6  1  0  0  0  0
  4  9  1  0  0  0  0
  4 10  1  0  0  0  0
  5  7  1  0  0  0  0
  5 11  1  0  0  0  0
  5 12  1  0  0  0  0
  6 13  1  0  0  0  0
  6 14  1  0  0  0  0
  6 15  1  0  0  0  0
  7 17  1  0  0  0  0
M  END
> <PUBCHEM_COMPOUND_CID>
527447
> <PUBCHEM_COMPOUND_CANONICALIZED>
1
> <PUBCHEM_CACTVS_COMPLEXITY>
54
> <PUBCHEM_CACTVS_HBOND_ACCEPTOR>
2
> <PUBCHEM_CACTVS_HBOND_DONOR>
1
> <PUBCHEM_CACTVS_ROTATABLE_BOND>
3
> <PUBCHEM_CACTVS_SUBSKEYS>
AAADccBgIABAAAAAAAAAAAAAAAAAAAAAAAAAAAAAAAAAAAAAAAAAGgQAAAAACACkwAKCAAAAAAQIAAgQgAAAAAAAAAAAAAEAAAAAABIAAAAAAAAAAAAAAAAIAAAAAAAAAAAAAAAAAAAAAAAAAAAAAAAAAA==
> <PUBCHEM_IUPAC_OPENEYE_NAME>
3-sulfanylpentanal
> <PUBCHEM_IUPAC_CAS_NAME>
3-mercaptopentanal
> <PUBCHEM_IUPAC_NAME_MARKUP>
3-sulfanylpentanal
> <PUBCHEM_IUPAC_NAME>
3-sulfanylpentanal
> <PUBCHEM_IUPAC_SYSTEMATIC_NAME>
3-sulfanylpentanal
> <PUBCHEM_IUPAC_TRADITIONAL_NAME>
3-mercaptovaleraldehyde
> <PUBCHEM_IUPAC_INCHI>
InChI=1S/C5H10OS/c1-2-5(7)3-4-6/h4-5,7H,2-3H2,1H3
> <PUBCHEM_IUPAC_INCHIKEY>
DLKSIGNUTFOJIC-UHFFFAOYSA-N
> <PUBCHEM_XLOGP3_AA>
0.9
> <PUBCHEM_EXACT_MASS>
118.04523611
> <PUBCHEM_MOLECULAR_FORMULA>
C5H10OS
> <PUBCHEM_MOLECULAR_WEIGHT>
118.20
> <PUBCHEM_OPENEYE_CAN_SMILES>
CCC(CC=O)S
> <PUBCHEM_OPENEYE_ISO_SMILES>
CCC(CC=O)S
> <PUBCHEM_CACTVS_TPSA>
18.1
> <PUBCHEM_MONOISOTOPIC_WEIGHT>
118.04523611
> <PUBCHEM_TOTAL_CHARGE>
0
> <PUBCHEM_HEAVY_ATOM_COUNT>
7
> <PUBCHEM_ATOM_DEF_STEREO_COUNT>
0
> <PUBCHEM_ATOM_UDEF_STEREO_COUNT>
1
> <PUBCHEM_BOND_DEF_STEREO_COUNT>
0
> <PUBCHEM_BOND_UDEF_STEREO_COUNT>
0
> <PUBCHEM_ISOTOPIC_ATOM_COUNT>
0
> <PUBCHEM_COMPONENT_COUNT>
1
> <PUBCHEM_CACTVS_TAUTO_COUNT>
-1
> <PUBCHEM_COORDINATE_TYPE>
1
5
255
> <PUBCHEM_BONDANNOTATIONS>
3  1  3
$$$$
