527436
  -OEChem-10302200292D
 20 19  0     1  0  0  0  0  0999 V2000
    5.4641   -0.2500    0.0000 S   0  0  0  0  0  0  0  0  0  0  0  0
    2.8660    1.2500    0.0000 O   0  0  0  0  0  0  0  0  0  0  0  0
    3.7320   -0.2500    0.0000 C   0  0  3  0  0  0  0  0  0  0  0  0
    4.5981    0.2500    0.0000 C   0  0  3  0  0  0  0  0  0  0  0  0
    3.7320   -1.2500    0.0000 C   0  0  0  0  0  0  0  0  0  0  0  0
    2.8660    0.2500    0.0000 C   0  0  0  0  0  0  0  0  0  0  0  0
    4.5981    1.2500    0.0000 C   0  0  0  0  0  0  0  0  0  0  0  0
    2.0000   -0.2500    0.0000 C   0  0  0  0  0  0  0  0  0  0  0  0
    4.2690   -0.5600    0.0000 H   0  0  0  0  0  0  0  0  0  0  0  0
    5.1350    0.5600    0.0000 H   0  0  0  0  0  0  0  0  0  0  0  0
    3.1120   -1.2500    0.0000 H   0  0  0  0  0  0  0  0  0  0  0  0
    3.7320   -1.8700    0.0000 H   0  0  0  0  0  0  0  0  0  0  0  0
    4.3520   -1.2500    0.0000 H   0  0  0  0  0  0  0  0  0  0  0  0
    5.2181    1.2500    0.0000 H   0  0  0  0  0  0  0  0  0  0  0  0
    4.5981    1.8700    0.0000 H   0  0  0  0  0  0  0  0  0  0  0  0
    3.9781    1.2500    0.0000 H   0  0  0  0  0  0  0  0  0  0  0  0
    1.6900    0.2869    0.0000 H   0  0  0  0  0  0  0  0  0  0  0  0
    1.4631   -0.5600    0.0000 H   0  0  0  0  0  0  0  0  0  0  0  0
    2.3100   -0.7869    0.0000 H   0  0  0  0  0  0  0  0  0  0  0  0
    6.0010    0.0600    0.0000 H   0  0  0  0  0  0  0  0  0  0  0  0
  1  4  1  0  0  0  0
  1 20  1  0  0  0  0
  2  6  2  0  0  0  0
  3  4  1  0  0  0  0
  3  5  1  0  0  0  0
  3  6  1  0  0  0  0
  3  9  1  0  0  0  0
  4  7  1  0  0  0  0
  4 10  1  0  0  0  0
  5 11  1  0  0  0  0
  5 12  1  0  0  0  0
  5 13  1  0  0  0  0
  6  8  1  0  0  0  0
  7 14  1  0  0  0  0
  7 15  1  0  0  0  0
  7 16  1  0  0  0  0
  8 17  1  0  0  0  0
  8 18  1  0  0  0  0
  8 19  1  0  0  0  0
M  END
> <PUBCHEM_COMPOUND_CID>
527436
> <PUBCHEM_COMPOUND_CANONICALIZED>
1
> <PUBCHEM_CACTVS_COMPLEXITY>
90.5
> <PUBCHEM_CACTVS_HBOND_ACCEPTOR>
2
> <PUBCHEM_CACTVS_HBOND_DONOR>
1
> <PUBCHEM_CACTVS_ROTATABLE_BOND>
2
> <PUBCHEM_CACTVS_SUBSKEYS>
AAADccBgIABAAAAAAAAAAAAAAAAAAAAAAAAAAAAAAAAAAAAAAAAAGgQAAAAADQSEwACCAAAAAAQIAIAQAAAAAAAAAAAAAAEAAAAAABIAAAAAAAAAAAAAAAAAAAAKAAAAAAAAAAAAAAAAAAAAAAAAAAAAAA==
> <PUBCHEM_IUPAC_OPENEYE_NAME>
3-methyl-4-sulfanyl-pentan-2-one
> <PUBCHEM_IUPAC_CAS_NAME>
4-mercapto-3-methyl-2-pentanone
> <PUBCHEM_IUPAC_NAME_MARKUP>
3-methyl-4-sulfanylpentan-2-one
> <PUBCHEM_IUPAC_NAME>
3-methyl-4-sulfanylpentan-2-one
> <PUBCHEM_IUPAC_SYSTEMATIC_NAME>
3-methyl-4-sulfanyl-pentan-2-one
> <PUBCHEM_IUPAC_TRADITIONAL_NAME>
4-mercapto-3-methyl-pentan-2-one
> <PUBCHEM_IUPAC_INCHI>
InChI=1S/C6H12OS/c1-4(5(2)7)6(3)8/h4,6,8H,1-3H3
> <PUBCHEM_IUPAC_INCHIKEY>
VPFDUTYZTDYOAS-UHFFFAOYSA-N
> <PUBCHEM_XLOGP3_AA>
1.2
> <PUBCHEM_EXACT_MASS>
132.06088618
> <PUBCHEM_MOLECULAR_FORMULA>
C6H12OS
> <PUBCHEM_MOLECULAR_WEIGHT>
132.23
> <PUBCHEM_OPENEYE_CAN_SMILES>
CC(C(C)S)C(=O)C
> <PUBCHEM_OPENEYE_ISO_SMILES>
CC(C(C)S)C(=O)C
> <PUBCHEM_CACTVS_TPSA>
18.1
> <PUBCHEM_MONOISOTOPIC_WEIGHT>
132.06088618
> <PUBCHEM_TOTAL_CHARGE>
0
> <PUBCHEM_HEAVY_ATOM_COUNT>
8
> <PUBCHEM_ATOM_DEF_STEREO_COUNT>
0
> <PUBCHEM_ATOM_UDEF_STEREO_COUNT>
2
> <PUBCHEM_BOND_DEF_STEREO_COUNT>
0
> <PUBCHEM_BOND_UDEF_STEREO_COUNT>
0
> <PUBCHEM_ISOTOPIC_ATOM_COUNT>
0
> <PUBCHEM_COMPONENT_COUNT>
1
> <PUBCHEM_CACTVS_TAUTO_COUNT>
-1
> <PUBCHEM_COORDINATE_TYPE>
1
5
255
> <PUBCHEM_BONDANNOTATIONS>
4  1  3
3  5  3
$$$$
