527570
  -OEChem-10302200292D
 16 16  0     1  0  0  0  0  0999 V2000
    3.7320    1.5000    0.0000 Br  0  0  0  0  0  0  0  0  0  0  0  0
    2.0000    0.5000    0.0000 Br  0  0  0  0  0  0  0  0  0  0  0  0
    4.5981   -0.0000    0.0000 C   0  0  0  0  0  0  0  0  0  0  0  0
    4.5981   -1.0000    0.0000 C   0  0  0  0  0  0  0  0  0  0  0  0
    3.7320    0.5000    0.0000 C   0  0  3  0  0  0  0  0  0  0  0  0
    3.7320   -1.5000    0.0000 C   0  0  0  0  0  0  0  0  0  0  0  0
    2.8660    0.0000    0.0000 C   0  0  0  0  0  0  0  0  0  0  0  0
    2.8660   -1.0000    0.0000 C   0  0  0  0  0  0  0  0  0  0  0  0
    5.2087   -0.1077    0.0000 H   0  0  0  0  0  0  0  0  0  0  0  0
    4.8101    0.5826    0.0000 H   0  0  0  0  0  0  0  0  0  0  0  0
    4.8101   -1.5826    0.0000 H   0  0  0  0  0  0  0  0  0  0  0  0
    5.2087   -0.8923    0.0000 H   0  0  0  0  0  0  0  0  0  0  0  0
    4.4682    0.9250    0.0000 H   0  0  0  0  0  0  0  0  0  0  0  0
    3.3335   -1.9750    0.0000 H   0  0  0  0  0  0  0  0  0  0  0  0
    4.1306   -1.9750    0.0000 H   0  0  0  0  0  0  0  0  0  0  0  0
    2.3291   -1.3100    0.0000 H   0  0  0  0  0  0  0  0  0  0  0  0
  1  5  1  0  0  0  0
  2  7  1  0  0  0  0
  3  4  1  0  0  0  0
  3  5  1  0  0  0  0
  3  9  1  0  0  0  0
  3 10  1  0  0  0  0
  4  6  1  0  0  0  0
  4 11  1  0  0  0  0
  4 12  1  0  0  0  0
  5  7  1  0  0  0  0
  5 13  1  0  0  0  0
  6  8  1  0  0  0  0
  6 14  1  0  0  0  0
  6 15  1  0  0  0  0
  7  8  2  0  0  0  0
  8 16  1  0  0  0  0
M  END
> <PUBCHEM_COMPOUND_CID>
527570
> <PUBCHEM_COMPOUND_CANONICALIZED>
1
> <PUBCHEM_CACTVS_COMPLEXITY>
107
> <PUBCHEM_CACTVS_HBOND_ACCEPTOR>
0
> <PUBCHEM_CACTVS_HBOND_DONOR>
0
> <PUBCHEM_CACTVS_ROTATABLE_BOND>
0
> <PUBCHEM_CACTVS_SUBSKEYS>
AAADccBgAAAAGAAAAAAAAAAAAAAAAAAAAAAgAAAAAAAAAAAAAAAAGABAAAAByACAAAAAAAAAAACAACBCAAAAAAAgAAAACAAAACgAAAIAAQAAAAAAgAAIAAMAAAAAAAAAAAAAAAAAAAAAAAAAAAAAAAAAAA==
> <PUBCHEM_IUPAC_OPENEYE_NAME>
1,6-dibromocyclohexene
> <PUBCHEM_IUPAC_CAS_NAME>
1,6-dibromocyclohexene
> <PUBCHEM_IUPAC_NAME_MARKUP>
1,6-dibromocyclohexene
> <PUBCHEM_IUPAC_NAME>
1,6-dibromocyclohexene
> <PUBCHEM_IUPAC_SYSTEMATIC_NAME>
1,6-bis(bromanyl)cyclohexene
> <PUBCHEM_IUPAC_TRADITIONAL_NAME>
1,6-dibromocyclohexene
> <PUBCHEM_IUPAC_INCHI>
InChI=1S/C6H8Br2/c7-5-3-1-2-4-6(5)8/h3,6H,1-2,4H2
> <PUBCHEM_IUPAC_INCHIKEY>
GOMHXBPKIHKYIA-UHFFFAOYSA-N
> <PUBCHEM_XLOGP3_AA>
2.8
> <PUBCHEM_EXACT_MASS>
239.89723
> <PUBCHEM_MOLECULAR_FORMULA>
C6H8Br2
> <PUBCHEM_MOLECULAR_WEIGHT>
239.94
> <PUBCHEM_OPENEYE_CAN_SMILES>
C1CC=C(C(C1)Br)Br
> <PUBCHEM_OPENEYE_ISO_SMILES>
C1CC=C(C(C1)Br)Br
> <PUBCHEM_CACTVS_TPSA>
0
> <PUBCHEM_MONOISOTOPIC_WEIGHT>
237.89928
> <PUBCHEM_TOTAL_CHARGE>
0
> <PUBCHEM_HEAVY_ATOM_COUNT>
8
> <PUBCHEM_ATOM_DEF_STEREO_COUNT>
0
> <PUBCHEM_ATOM_UDEF_STEREO_COUNT>
1
> <PUBCHEM_BOND_DEF_STEREO_COUNT>
0
> <PUBCHEM_BOND_UDEF_STEREO_COUNT>
0
> <PUBCHEM_ISOTOPIC_ATOM_COUNT>
0
> <PUBCHEM_COMPONENT_COUNT>
1
> <PUBCHEM_CACTVS_TAUTO_COUNT>
1
> <PUBCHEM_COORDINATE_TYPE>
1
5
255
> <PUBCHEM_BONDANNOTATIONS>
5  13  3
$$$$
