527558
  -OEChem-10302200292D
 14 14  0     1  0  0  0  0  0999 V2000
    2.8660    1.5000    0.0000 I   0  0  0  0  0  0  0  0  0  0  0  0
    2.8660    0.5000    0.0000 C   0  0  3  0  0  0  0  0  0  0  0  0
    2.0000    0.0000    0.0000 C   0  0  0  0  0  0  0  0  0  0  0  0
    3.7320   -0.0000    0.0000 C   0  0  0  0  0  0  0  0  0  0  0  0
    2.0000   -1.0000    0.0000 C   0  0  0  0  0  0  0  0  0  0  0  0
    3.7320   -1.0000    0.0000 C   0  0  0  0  0  0  0  0  0  0  0  0
    2.8660   -1.5000    0.0000 C   0  0  0  0  0  0  0  0  0  0  0  0
    3.4030    0.8100    0.0000 H   0  0  0  0  0  0  0  0  0  0  0  0
    1.7880    0.5826    0.0000 H   0  0  0  0  0  0  0  0  0  0  0  0
    1.3894   -0.1077    0.0000 H   0  0  0  0  0  0  0  0  0  0  0  0
    4.2690    0.3100    0.0000 H   0  0  0  0  0  0  0  0  0  0  0  0
    1.4631   -1.3100    0.0000 H   0  0  0  0  0  0  0  0  0  0  0  0
    4.2690   -1.3100    0.0000 H   0  0  0  0  0  0  0  0  0  0  0  0
    2.8660   -2.1200    0.0000 H   0  0  0  0  0  0  0  0  0  0  0  0
  1  2  1  0  0  0  0
  2  3  1  0  0  0  0
  2  4  1  0  0  0  0
  2  8  1  0  0  0  0
  3  5  1  0  0  0  0
  3  9  1  0  0  0  0
  3 10  1  0  0  0  0
  4  6  2  0  0  0  0
  4 11  1  0  0  0  0
  5  7  2  0  0  0  0
  5 12  1  0  0  0  0
  6  7  1  0  0  0  0
  6 13  1  0  0  0  0
  7 14  1  0  0  0  0
M  END
> <PUBCHEM_COMPOUND_CID>
527558
> <PUBCHEM_COMPOUND_CANONICALIZED>
1
> <PUBCHEM_CACTVS_COMPLEXITY>
103
> <PUBCHEM_CACTVS_HBOND_ACCEPTOR>
0
> <PUBCHEM_CACTVS_HBOND_DONOR>
0
> <PUBCHEM_CACTVS_ROTATABLE_BOND>
0
> <PUBCHEM_CACTVS_SUBSKEYS>
AAADcYBgAAAAAgAAAAAAAAAAAAAAAAAAAAAgAAAAAAAAAAAAAAAAGAAgAAAACACCAAAAAAAAAACAACBCAAAAAAAgAAAICAAAAAgIAAAAAQAAAAAAgAAIgAIAAAAAAAAAAAAAAAAAAAAAAAAAAAAAAAAAAA==
> <PUBCHEM_IUPAC_OPENEYE_NAME>
5-iodocyclohexa-1,3-diene
> <PUBCHEM_IUPAC_CAS_NAME>
5-iodocyclohexa-1,3-diene
> <PUBCHEM_IUPAC_NAME_MARKUP>
5-iodocyclohexa-1,3-diene
> <PUBCHEM_IUPAC_NAME>
5-iodocyclohexa-1,3-diene
> <PUBCHEM_IUPAC_SYSTEMATIC_NAME>
5-iodanylcyclohexa-1,3-diene
> <PUBCHEM_IUPAC_TRADITIONAL_NAME>
5-iodocyclohexa-1,3-diene
> <PUBCHEM_IUPAC_INCHI>
InChI=1S/C6H7I/c7-6-4-2-1-3-5-6/h1-4,6H,5H2
> <PUBCHEM_IUPAC_INCHIKEY>
AYBNBWJEGGDVPH-UHFFFAOYSA-N
> <PUBCHEM_XLOGP3_AA>
2.7
> <PUBCHEM_EXACT_MASS>
205.95925
> <PUBCHEM_MOLECULAR_FORMULA>
C6H7I
> <PUBCHEM_MOLECULAR_WEIGHT>
206.02
> <PUBCHEM_OPENEYE_CAN_SMILES>
C1C=CC=CC1I
> <PUBCHEM_OPENEYE_ISO_SMILES>
C1C=CC=CC1I
> <PUBCHEM_CACTVS_TPSA>
0
> <PUBCHEM_MONOISOTOPIC_WEIGHT>
205.95925
> <PUBCHEM_TOTAL_CHARGE>
0
> <PUBCHEM_HEAVY_ATOM_COUNT>
7
> <PUBCHEM_ATOM_DEF_STEREO_COUNT>
0
> <PUBCHEM_ATOM_UDEF_STEREO_COUNT>
1
> <PUBCHEM_BOND_DEF_STEREO_COUNT>
0
> <PUBCHEM_BOND_UDEF_STEREO_COUNT>
0
> <PUBCHEM_ISOTOPIC_ATOM_COUNT>
0
> <PUBCHEM_COMPONENT_COUNT>
1
> <PUBCHEM_CACTVS_TAUTO_COUNT>
-1
> <PUBCHEM_COORDINATE_TYPE>
1
5
255
> <PUBCHEM_BONDANNOTATIONS>
2  1  3
$$$$
