527567
  -OEChem-10302200292D
 17 17  0     1  0  0  0  0  0999 V2000
    3.7320    1.5000    0.0000 I   0  0  0  0  0  0  0  0  0  0  0  0
    3.7320    0.5000    0.0000 C   0  0  3  0  0  0  0  0  0  0  0  0
    2.8660    0.0000    0.0000 C   0  0  0  0  0  0  0  0  0  0  0  0
    3.7320   -1.5000    0.0000 C   0  0  0  0  0  0  0  0  0  0  0  0
    2.8660   -1.0000    0.0000 C   0  0  0  0  0  0  0  0  0  0  0  0
    4.5981   -0.0000    0.0000 C   0  0  0  0  0  0  0  0  0  0  0  0
    4.5981   -1.0000    0.0000 C   0  0  0  0  0  0  0  0  0  0  0  0
    2.0000    0.5000    0.0000 C   0  0  0  0  0  0  0  0  0  0  0  0
    4.2690    0.8100    0.0000 H   0  0  0  0  0  0  0  0  0  0  0  0
    3.3335   -1.9750    0.0000 H   0  0  0  0  0  0  0  0  0  0  0  0
    4.1306   -1.9750    0.0000 H   0  0  0  0  0  0  0  0  0  0  0  0
    2.3291   -1.3100    0.0000 H   0  0  0  0  0  0  0  0  0  0  0  0
    5.1350    0.3100    0.0000 H   0  0  0  0  0  0  0  0  0  0  0  0
    5.1350   -1.3100    0.0000 H   0  0  0  0  0  0  0  0  0  0  0  0
    2.3100    1.0369    0.0000 H   0  0  0  0  0  0  0  0  0  0  0  0
    1.4631    0.8100    0.0000 H   0  0  0  0  0  0  0  0  0  0  0  0
    1.6900   -0.0369    0.0000 H   0  0  0  0  0  0  0  0  0  0  0  0
  1  2  1  0  0  0  0
  2  3  1  0  0  0  0
  2  6  1  0  0  0  0
  2  9  1  0  0  0  0
  3  5  2  0  0  0  0
  3  8  1  0  0  0  0
  4  5  1  0  0  0  0
  4  7  1  0  0  0  0
  4 10  1  0  0  0  0
  4 11  1  0  0  0  0
  5 12  1  0  0  0  0
  6  7  2  0  0  0  0
  6 13  1  0  0  0  0
  7 14  1  0  0  0  0
  8 15  1  0  0  0  0
  8 16  1  0  0  0  0
  8 17  1  0  0  0  0
M  END
> <PUBCHEM_COMPOUND_CID>
527567
> <PUBCHEM_COMPOUND_CANONICALIZED>
1
> <PUBCHEM_CACTVS_COMPLEXITY>
133
> <PUBCHEM_CACTVS_HBOND_ACCEPTOR>
0
> <PUBCHEM_CACTVS_HBOND_DONOR>
0
> <PUBCHEM_CACTVS_ROTATABLE_BOND>
0
> <PUBCHEM_CACTVS_SUBSKEYS>
AAADccBgAAAAAgAAAAAAAAAAAAAAAAAAAAAgAAAAAAAAAAAAAAAAGAAgAAAADACCAAACAAAAAACAAiBCAAAAAAAgAAAICAAAAAgAAAAAAQAAAAAAgAAIAAIAAAAAAAAAAAAAAAAAAAAAAAAAAAAAAAAAAA==
> <PUBCHEM_IUPAC_OPENEYE_NAME>
6-iodo-1-methyl-cyclohexa-1,4-diene
> <PUBCHEM_IUPAC_CAS_NAME>
6-iodo-1-methylcyclohexa-1,4-diene
> <PUBCHEM_IUPAC_NAME_MARKUP>
6-iodo-1-methylcyclohexa-1,4-diene
> <PUBCHEM_IUPAC_NAME>
6-iodo-1-methylcyclohexa-1,4-diene
> <PUBCHEM_IUPAC_SYSTEMATIC_NAME>
6-iodanyl-1-methyl-cyclohexa-1,4-diene
> <PUBCHEM_IUPAC_TRADITIONAL_NAME>
6-iodo-1-methyl-cyclohexa-1,4-diene
> <PUBCHEM_IUPAC_INCHI>
InChI=1S/C7H9I/c1-6-4-2-3-5-7(6)8/h3-5,7H,2H2,1H3
> <PUBCHEM_IUPAC_INCHIKEY>
JTOQSPHPBDUHQV-UHFFFAOYSA-N
> <PUBCHEM_XLOGP3_AA>
2.6
> <PUBCHEM_EXACT_MASS>
219.97490
> <PUBCHEM_MOLECULAR_FORMULA>
C7H9I
> <PUBCHEM_MOLECULAR_WEIGHT>
220.05
> <PUBCHEM_OPENEYE_CAN_SMILES>
CC1=CCC=CC1I
> <PUBCHEM_OPENEYE_ISO_SMILES>
CC1=CCC=CC1I
> <PUBCHEM_CACTVS_TPSA>
0
> <PUBCHEM_MONOISOTOPIC_WEIGHT>
219.97490
> <PUBCHEM_TOTAL_CHARGE>
0
> <PUBCHEM_HEAVY_ATOM_COUNT>
8
> <PUBCHEM_ATOM_DEF_STEREO_COUNT>
0
> <PUBCHEM_ATOM_UDEF_STEREO_COUNT>
1
> <PUBCHEM_BOND_DEF_STEREO_COUNT>
0
> <PUBCHEM_BOND_UDEF_STEREO_COUNT>
0
> <PUBCHEM_ISOTOPIC_ATOM_COUNT>
0
> <PUBCHEM_COMPONENT_COUNT>
1
> <PUBCHEM_CACTVS_TAUTO_COUNT>
-1
> <PUBCHEM_COORDINATE_TYPE>
1
5
255
> <PUBCHEM_BONDANNOTATIONS>
2  1  3
$$$$
