527597
  -OEChem-10302200292D
 31 32  0     1  0  0  0  0  0999 V2000
    2.8663   -1.4998    0.0000 C   0  0  3  0  0  0  0  0  0  0  0  0
    2.0003   -0.9998    0.0000 C   0  0  3  0  0  0  0  0  0  0  0  0
    2.0000   -2.0002    0.0000 C   0  0  0  0  0  0  0  0  0  0  0  0
    3.7323   -0.9998    0.0000 C   0  0  0  0  0  0  0  0  0  0  0  0
    2.0003    0.0002    0.0000 C   0  0  0  0  0  0  0  0  0  0  0  0
    3.7323    0.0002    0.0000 C   0  0  0  0  0  0  0  0  0  0  0  0
    2.8663    0.5002    0.0000 C   0  0  0  0  0  0  0  0  0  0  0  0
    4.5983    0.5002    0.0000 C   0  0  0  0  0  0  0  0  0  0  0  0
    2.8663    1.5002    0.0000 C   0  0  0  0  0  0  0  0  0  0  0  0
    4.5983    1.5002    0.0000 C   0  0  0  0  0  0  0  0  0  0  0  0
    3.7323    2.0002    0.0000 C   0  0  0  0  0  0  0  0  0  0  0  0
    3.1763   -2.0367    0.0000 H   0  0  0  0  0  0  0  0  0  0  0  0
    1.3803   -0.9997    0.0000 H   0  0  0  0  0  0  0  0  0  0  0  0
    1.3894   -2.1078    0.0000 H   0  0  0  0  0  0  0  0  0  0  0  0
    2.2121   -2.5828    0.0000 H   0  0  0  0  0  0  0  0  0  0  0  0
    3.9444   -1.5824    0.0000 H   0  0  0  0  0  0  0  0  0  0  0  0
    4.3429   -0.8921    0.0000 H   0  0  0  0  0  0  0  0  0  0  0  0
    1.7882    0.5828    0.0000 H   0  0  0  0  0  0  0  0  0  0  0  0
    1.3897   -0.1074    0.0000 H   0  0  0  0  0  0  0  0  0  0  0  0
    3.5202    0.5828    0.0000 H   0  0  0  0  0  0  0  0  0  0  0  0
    3.1217   -0.1074    0.0000 H   0  0  0  0  0  0  0  0  0  0  0  0
    3.0783   -0.0824    0.0000 H   0  0  0  0  0  0  0  0  0  0  0  0
    3.4769    0.6079    0.0000 H   0  0  0  0  0  0  0  0  0  0  0  0
    4.8104   -0.0824    0.0000 H   0  0  0  0  0  0  0  0  0  0  0  0
    5.2089    0.6079    0.0000 H   0  0  0  0  0  0  0  0  0  0  0  0
    2.6542    2.0828    0.0000 H   0  0  0  0  0  0  0  0  0  0  0  0
    2.2557    1.3926    0.0000 H   0  0  0  0  0  0  0  0  0  0  0  0
    5.2089    1.3926    0.0000 H   0  0  0  0  0  0  0  0  0  0  0  0
    4.8104    2.0828    0.0000 H   0  0  0  0  0  0  0  0  0  0  0  0
    4.1308    2.4752    0.0000 H   0  0  0  0  0  0  0  0  0  0  0  0
    3.3338    2.4752    0.0000 H   0  0  0  0  0  0  0  0  0  0  0  0
  1  2  1  0  0  0  0
  1  3  1  0  0  0  0
  1  4  1  0  0  0  0
  1 12  1  0  0  0  0
  2  3  1  0  0  0  0
  2  5  1  0  0  0  0
  2 13  1  0  0  0  0
  3 14  1  0  0  0  0
  3 15  1  0  0  0  0
  4  6  1  0  0  0  0
  4 16  1  0  0  0  0
  4 17  1  0  0  0  0
  5  7  1  0  0  0  0
  5 18  1  0  0  0  0
  5 19  1  0  0  0  0
  6  8  1  0  0  0  0
  6 20  1  0  0  0  0
  6 21  1  0  0  0  0
  7  9  1  0  0  0  0
  7 22  1  0  0  0  0
  7 23  1  0  0  0  0
  8 10  1  0  0  0  0
  8 24  1  0  0  0  0
  8 25  1  0  0  0  0
  9 11  1  0  0  0  0
  9 26  1  0  0  0  0
  9 27  1  0  0  0  0
 10 11  1  0  0  0  0
 10 28  1  0  0  0  0
 10 29  1  0  0  0  0
 11 30  1  0  0  0  0
 11 31  1  0  0  0  0
M  END
> <PUBCHEM_COMPOUND_CID>
527597
> <PUBCHEM_COMPOUND_CANONICALIZED>
1
> <PUBCHEM_CACTVS_COMPLEXITY>
103
> <PUBCHEM_CACTVS_HBOND_ACCEPTOR>
0
> <PUBCHEM_CACTVS_HBOND_DONOR>
0
> <PUBCHEM_CACTVS_ROTATABLE_BOND>
0
> <PUBCHEM_CACTVS_SUBSKEYS>
AAADceBwAAAAAAAAAAAAAAAAGAAAAAAAAAAAAAAAAAAAAADAAAAAGAAAAAAADQCAAAAAAAAAAAAAAAAAAAAAAAAAAAAAAAAAAAAAAAIAAAAAAAAAAAAAAAEAgMAOAAAAAAAAAAAAAAAAAAAAAAAAAAAAAA==
> <PUBCHEM_IUPAC_OPENEYE_NAME>
bicyclo[8.1.0]undecane
> <PUBCHEM_IUPAC_CAS_NAME>
bicyclo[8.1.0]undecane
> <PUBCHEM_IUPAC_NAME_MARKUP>
bicyclo[8.1.0]undecane
> <PUBCHEM_IUPAC_NAME>
bicyclo[8.1.0]undecane
> <PUBCHEM_IUPAC_SYSTEMATIC_NAME>
bicyclo[8.1.0]undecane
> <PUBCHEM_IUPAC_TRADITIONAL_NAME>
bicyclo[8.1.0]undecane
> <PUBCHEM_IUPAC_INCHI>
InChI=1S/C11H20/c1-2-4-6-8-11-9-10(11)7-5-3-1/h10-11H,1-9H2
> <PUBCHEM_IUPAC_INCHIKEY>
ZGGJKSINQDYFJN-UHFFFAOYSA-N
> <PUBCHEM_XLOGP3_AA>
5.2
> <PUBCHEM_EXACT_MASS>
152.156500638
> <PUBCHEM_MOLECULAR_FORMULA>
C11H20
> <PUBCHEM_MOLECULAR_WEIGHT>
152.28
> <PUBCHEM_OPENEYE_CAN_SMILES>
C1CCCCC2CC2CCC1
> <PUBCHEM_OPENEYE_ISO_SMILES>
C1CCCCC2CC2CCC1
> <PUBCHEM_CACTVS_TPSA>
0
> <PUBCHEM_MONOISOTOPIC_WEIGHT>
152.156500638
> <PUBCHEM_TOTAL_CHARGE>
0
> <PUBCHEM_HEAVY_ATOM_COUNT>
11
> <PUBCHEM_ATOM_DEF_STEREO_COUNT>
0
> <PUBCHEM_ATOM_UDEF_STEREO_COUNT>
2
> <PUBCHEM_BOND_DEF_STEREO_COUNT>
0
> <PUBCHEM_BOND_UDEF_STEREO_COUNT>
0
> <PUBCHEM_ISOTOPIC_ATOM_COUNT>
0
> <PUBCHEM_COMPONENT_COUNT>
1
> <PUBCHEM_CACTVS_TAUTO_COUNT>
-1
> <PUBCHEM_COORDINATE_TYPE>
1
5
255
> <PUBCHEM_BONDANNOTATIONS>
1  4  3
2  5  3
$$$$
