527501
  -OEChem-10302200292D
 50 52  0     1  0  0  0  0  0999 V2000
    8.9942   -2.8275    0.0000 O   0  0  0  0  0  0  0  0  0  0  0  0
    7.2458    0.2071    0.0000 O   0  0  0  0  0  0  0  0  0  0  0  0
   10.7364    2.2450    0.0000 O   0  0  0  0  0  0  0  0  0  0  0  0
    9.0044    2.2384    0.0000 O   0  0  0  0  0  0  0  0  0  0  0  0
    9.8602   -1.3275    0.0000 C   0  0  3  0  0  0  0  0  0  0  0  0
    8.9942   -0.8275    0.0000 C   0  0  3  0  0  0  0  0  0  0  0  0
    9.8602   -2.3275    0.0000 C   0  0  3  0  0  0  0  0  0  0  0  0
   10.7702   -0.8207    0.0000 C   0  0  0  0  0  0  0  0  0  0  0  0
    8.1282   -1.3275    0.0000 C   0  0  0  0  0  0  0  0  0  0  0  0
   10.7783    0.2209    0.0000 C   0  0  0  0  0  0  0  0  0  0  0  0
    8.9781    0.2140    0.0000 C   0  0  0  0  0  0  0  0  0  0  0  0
    8.1282   -2.3275    0.0000 C   0  0  0  0  0  0  0  0  0  0  0  0
    9.8762    0.7417    0.0000 C   0  0  0  0  0  0  0  0  0  0  0  0
   10.7263   -2.8275    0.0000 C   0  0  0  0  0  0  0  0  0  0  0  0
    7.2342   -0.7929    0.0000 C   0  0  0  0  0  0  0  0  0  0  0  0
    7.2342   -2.8622    0.0000 C   0  0  0  0  0  0  0  0  0  0  0  0
    6.3282   -2.3484    0.0000 C   0  0  0  0  0  0  0  0  0  0  0  0
    6.3282   -1.3067    0.0000 C   0  0  0  0  0  0  0  0  0  0  0  0
    9.8723    1.7417    0.0000 C   0  0  0  0  0  0  0  0  0  0  0  0
    5.4641   -2.8517    0.0000 C   0  0  0  0  0  0  0  0  0  0  0  0
    4.5961   -2.3550    0.0000 C   0  0  0  0  0  0  0  0  0  0  0  0
    3.7320   -2.8584    0.0000 C   0  0  0  0  0  0  0  0  0  0  0  0
    2.8641   -2.3617    0.0000 C   0  0  0  0  0  0  0  0  0  0  0  0
    2.0000   -2.8650    0.0000 C   0  0  0  0  0  0  0  0  0  0  0  0
   10.3948   -1.6417    0.0000 H   0  0  0  0  0  0  0  0  0  0  0  0
    9.5287   -0.5134    0.0000 H   0  0  0  0  0  0  0  0  0  0  0  0
    9.8602   -2.9475    0.0000 H   0  0  0  0  0  0  0  0  0  0  0  0
   10.9748   -1.4060    0.0000 H   0  0  0  0  0  0  0  0  0  0  0  0
   11.3819   -0.7193    0.0000 H   0  0  0  0  0  0  0  0  0  0  0  0
   11.3883    0.1101    0.0000 H   0  0  0  0  0  0  0  0  0  0  0  0
   10.9918    0.8030    0.0000 H   0  0  0  0  0  0  0  0  0  0  0  0
    8.4377    0.5177    0.0000 H   0  0  0  0  0  0  0  0  0  0  0  0
   10.4163   -3.3645    0.0000 H   0  0  0  0  0  0  0  0  0  0  0  0
   11.2632   -3.1375    0.0000 H   0  0  0  0  0  0  0  0  0  0  0  0
   11.0363   -2.2906    0.0000 H   0  0  0  0  0  0  0  0  0  0  0  0
    7.2414   -3.4822    0.0000 H   0  0  0  0  0  0  0  0  0  0  0  0
    5.7924   -0.9947    0.0000 H   0  0  0  0  0  0  0  0  0  0  0  0
    5.0674   -3.3282    0.0000 H   0  0  0  0  0  0  0  0  0  0  0  0
    5.8644   -3.3251    0.0000 H   0  0  0  0  0  0  0  0  0  0  0  0
    4.9928   -1.8786    0.0000 H   0  0  0  0  0  0  0  0  0  0  0  0
    4.1958   -1.8816    0.0000 H   0  0  0  0  0  0  0  0  0  0  0  0
    6.7125    0.5232    0.0000 H   0  0  0  0  0  0  0  0  0  0  0  0
    3.3353   -3.3348    0.0000 H   0  0  0  0  0  0  0  0  0  0  0  0
    4.1324   -3.3318    0.0000 H   0  0  0  0  0  0  0  0  0  0  0  0
    3.2608   -1.8852    0.0000 H   0  0  0  0  0  0  0  0  0  0  0  0
    2.4637   -1.8883    0.0000 H   0  0  0  0  0  0  0  0  0  0  0  0
   10.7340    2.8650    0.0000 H   0  0  0  0  0  0  0  0  0  0  0  0
    1.6879   -2.3293    0.0000 H   0  0  0  0  0  0  0  0  0  0  0  0
    1.4643   -3.1771    0.0000 H   0  0  0  0  0  0  0  0  0  0  0  0
    2.3121   -3.4008    0.0000 H   0  0  0  0  0  0  0  0  0  0  0  0
  1  7  1  0  0  0  0
  1 12  1  0  0  0  0
  2 15  1  0  0  0  0
  2 42  1  0  0  0  0
  3 19  1  0  0  0  0
  3 47  1  0  0  0  0
  4 19  2  0  0  0  0
  5  6  1  0  0  0  0
  5  7  1  0  0  0  0
  5  8  1  0  0  0  0
  5 25  1  0  0  0  0
  6  9  1  0  0  0  0
  6 11  1  0  0  0  0
  6 26  1  0  0  0  0
  7 14  1  0  0  0  0
  7 27  1  0  0  0  0
  8 10  1  0  0  0  0
  8 28  1  0  0  0  0
  8 29  1  0  0  0  0
  9 12  1  0  0  0  0
  9 15  2  0  0  0  0
 10 13  1  0  0  0  0
 10 30  1  0  0  0  0
 10 31  1  0  0  0  0
 11 13  2  0  0  0  0
 11 32  1  0  0  0  0
 12 16  2  0  0  0  0
 13 19  1  0  0  0  0
 14 33  1  0  0  0  0
 14 34  1  0  0  0  0
 14 35  1  0  0  0  0
 15 18  1  0  0  0  0
 16 17  1  0  0  0  0
 16 36  1  0  0  0  0
 17 18  2  0  0  0  0
 17 20  1  0  0  0  0
 18 37  1  0  0  0  0
 20 21  1  0  0  0  0
 20 38  1  0  0  0  0
 20 39  1  0  0  0  0
 21 22  1  0  0  0  0
 21 40  1  0  0  0  0
 21 41  1  0  0  0  0
 22 23  1  0  0  0  0
 22 43  1  0  0  0  0
 22 44  1  0  0  0  0
 23 24  1  0  0  0  0
 23 45  1  0  0  0  0
 23 46  1  0  0  0  0
 24 48  1  0  0  0  0
 24 49  1  0  0  0  0
 24 50  1  0  0  0  0
M  END
> <PUBCHEM_COMPOUND_CID>
527501
> <PUBCHEM_COMPOUND_CANONICALIZED>
1
> <PUBCHEM_CACTVS_COMPLEXITY>
486
> <PUBCHEM_CACTVS_HBOND_ACCEPTOR>
4
> <PUBCHEM_CACTVS_HBOND_DONOR>
2
> <PUBCHEM_CACTVS_ROTATABLE_BOND>
5
> <PUBCHEM_CACTVS_SUBSKEYS>
AAADceB4OAAAAAAAAAAAAAAAAAAAAAAAAAA0QIAAAAAAAACRAAAAGgAACAAADRSgmAIyDoAABgCIAiDSCAACCAAgIAAAiAEGCMgMJzKGMRqCeCClwBUIuYeI6PyOwAABCAAIAACAAAIQABAAAAAAAAAAAA==
> <PUBCHEM_IUPAC_OPENEYE_NAME>
1-hydroxy-6-methyl-3-pentyl-6a,7,8,10a-tetrahydro-6H-benzo[c]chromene-9-carboxylic acid
> <PUBCHEM_IUPAC_CAS_NAME>
1-hydroxy-6-methyl-3-pentyl-6a,7,8,10a-tetrahydro-6H-benzo[c][1]benzopyran-9-carboxylic acid
> <PUBCHEM_IUPAC_NAME_MARKUP>
1-hydroxy-6-methyl-3-pentyl-6<I>a</I>,7,8,10<I>a</I>-tetrahydro-6<I>H</I>-benzo[c]chromene-9-carboxylic acid
> <PUBCHEM_IUPAC_NAME>
1-hydroxy-6-methyl-3-pentyl-6a,7,8,10a-tetrahydro-6H-benzo[c]chromene-9-carboxylic acid
> <PUBCHEM_IUPAC_SYSTEMATIC_NAME>
6-methyl-1-oxidanyl-3-pentyl-6a,7,8,10a-tetrahydro-6H-benzo[c]chromene-9-carboxylic acid
> <PUBCHEM_IUPAC_TRADITIONAL_NAME>
3-amyl-1-hydroxy-6-methyl-6a,7,8,10a-tetrahydro-6H-benzo[c]chromene-9-carboxylic acid
> <PUBCHEM_IUPAC_INCHI>
InChI=1S/C20H26O4/c1-3-4-5-6-13-9-17(21)19-16-11-14(20(22)23)7-8-15(16)12(2)24-18(19)10-13/h9-12,15-16,21H,3-8H2,1-2H3,(H,22,23)
> <PUBCHEM_IUPAC_INCHIKEY>
JUOBYKAWBVCAIM-UHFFFAOYSA-N
> <PUBCHEM_XLOGP3_AA>
4.9
> <PUBCHEM_EXACT_MASS>
330.18310931
> <PUBCHEM_MOLECULAR_FORMULA>
C20H26O4
> <PUBCHEM_MOLECULAR_WEIGHT>
330.4
> <PUBCHEM_OPENEYE_CAN_SMILES>
CCCCCC1=CC(=C2C3C=C(CCC3C(OC2=C1)C)C(=O)O)O
> <PUBCHEM_OPENEYE_ISO_SMILES>
CCCCCC1=CC(=C2C3C=C(CCC3C(OC2=C1)C)C(=O)O)O
> <PUBCHEM_CACTVS_TPSA>
66.8
> <PUBCHEM_MONOISOTOPIC_WEIGHT>
330.18310931
> <PUBCHEM_TOTAL_CHARGE>
0
> <PUBCHEM_HEAVY_ATOM_COUNT>
24
> <PUBCHEM_ATOM_DEF_STEREO_COUNT>
0
> <PUBCHEM_ATOM_UDEF_STEREO_COUNT>
3
> <PUBCHEM_BOND_DEF_STEREO_COUNT>
0
> <PUBCHEM_BOND_UDEF_STEREO_COUNT>
0
> <PUBCHEM_ISOTOPIC_ATOM_COUNT>
0
> <PUBCHEM_COMPONENT_COUNT>
1
> <PUBCHEM_CACTVS_TAUTO_COUNT>
-1
> <PUBCHEM_COORDINATE_TYPE>
1
5
255
> <PUBCHEM_BONDANNOTATIONS>
12  16  8
15  18  8
16  17  8
17  18  8
5  8  3
6  11  3
7  14  3
9  12  8
9  15  8
$$$$
