527535
  -OEChem-10302200292D
 31 31  0     1  0  0  0  0  0999 V2000
    3.7601    0.4806    0.0000 N   0  0  0  0  0  0  0  0  0  0  0  0
    3.7601   -0.5194    0.0000 C   0  0  3  0  0  0  0  0  0  0  0  0
    2.8940   -1.0194    0.0000 C   0  0  0  0  0  0  0  0  0  0  0  0
    4.6261   -1.0194    0.0000 C   0  0  0  0  0  0  0  0  0  0  0  0
    4.5691    1.0684    0.0000 C   0  0  0  0  0  0  0  0  0  0  0  0
    2.9511    1.0684    0.0000 C   0  0  0  0  0  0  0  0  0  0  0  0
    2.8940   -2.0194    0.0000 C   0  0  0  0  0  0  0  0  0  0  0  0
    2.0280   -0.5194    0.0000 C   0  0  0  0  0  0  0  0  0  0  0  0
    4.2601    2.0194    0.0000 C   0  0  0  0  0  0  0  0  0  0  0  0
    3.2601    2.0194    0.0000 C   0  0  0  0  0  0  0  0  0  0  0  0
    5.5202    0.7593    0.0000 C   0  0  0  0  0  0  0  0  0  0  0  0
    2.0000    0.7593    0.0000 C   0  0  0  0  0  0  0  0  0  0  0  0
    4.2970   -0.2094    0.0000 H   0  0  0  0  0  0  0  0  0  0  0  0
    3.4310   -1.3294    0.0000 H   0  0  0  0  0  0  0  0  0  0  0  0
    4.3161   -1.5564    0.0000 H   0  0  0  0  0  0  0  0  0  0  0  0
    5.1630   -1.3294    0.0000 H   0  0  0  0  0  0  0  0  0  0  0  0
    4.9361   -0.4825    0.0000 H   0  0  0  0  0  0  0  0  0  0  0  0
    2.2740   -2.0194    0.0000 H   0  0  0  0  0  0  0  0  0  0  0  0
    2.8940   -2.6394    0.0000 H   0  0  0  0  0  0  0  0  0  0  0  0
    3.5140   -2.0194    0.0000 H   0  0  0  0  0  0  0  0  0  0  0  0
    2.3380    0.0175    0.0000 H   0  0  0  0  0  0  0  0  0  0  0  0
    1.4911   -0.2094    0.0000 H   0  0  0  0  0  0  0  0  0  0  0  0
    1.7180   -1.0564    0.0000 H   0  0  0  0  0  0  0  0  0  0  0  0
    4.6245    2.5210    0.0000 H   0  0  0  0  0  0  0  0  0  0  0  0
    2.8956    2.5210    0.0000 H   0  0  0  0  0  0  0  0  0  0  0  0
    5.3286    0.1697    0.0000 H   0  0  0  0  0  0  0  0  0  0  0  0
    6.1098    0.5678    0.0000 H   0  0  0  0  0  0  0  0  0  0  0  0
    5.7117    1.3490    0.0000 H   0  0  0  0  0  0  0  0  0  0  0  0
    1.8084    1.3490    0.0000 H   0  0  0  0  0  0  0  0  0  0  0  0
    1.4103    0.5678    0.0000 H   0  0  0  0  0  0  0  0  0  0  0  0
    2.1916    0.1697    0.0000 H   0  0  0  0  0  0  0  0  0  0  0  0
  1  2  1  0  0  0  0
  1  5  1  0  0  0  0
  1  6  1  0  0  0  0
  2  3  1  0  0  0  0
  2  4  1  0  0  0  0
  2 13  1  0  0  0  0
  3  7  1  0  0  0  0
  3  8  1  0  0  0  0
  3 14  1  0  0  0  0
  4 15  1  0  0  0  0
  4 16  1  0  0  0  0
  4 17  1  0  0  0  0
  5  9  2  0  0  0  0
  5 11  1  0  0  0  0
  6 10  2  0  0  0  0
  6 12  1  0  0  0  0
  7 18  1  0  0  0  0
  7 19  1  0  0  0  0
  7 20  1  0  0  0  0
  8 21  1  0  0  0  0
  8 22  1  0  0  0  0
  8 23  1  0  0  0  0
  9 10  1  0  0  0  0
  9 24  1  0  0  0  0
 10 25  1  0  0  0  0
 11 26  1  0  0  0  0
 11 27  1  0  0  0  0
 11 28  1  0  0  0  0
 12 29  1  0  0  0  0
 12 30  1  0  0  0  0
 12 31  1  0  0  0  0
M  END
> <PUBCHEM_COMPOUND_CID>
527535
> <PUBCHEM_COMPOUND_CANONICALIZED>
1
> <PUBCHEM_CACTVS_COMPLEXITY>
132
> <PUBCHEM_CACTVS_HBOND_ACCEPTOR>
0
> <PUBCHEM_CACTVS_HBOND_DONOR>
0
> <PUBCHEM_CACTVS_ROTATABLE_BOND>
2
> <PUBCHEM_CACTVS_SUBSKEYS>
AAADceByAAAAAAAAAAAAAAAAAAAAAWAAAAAAAAAAAAAAAAABgAAAHAAAAAAADSjBFgQygJMMEACgASRiRACCgCAhAiAI2CA4ZJgIIOLAkZGEAAhggADIyAcQAAAIAAAAAAAAAAAAAAAAAAAAAAAAAAAAAA==
> <PUBCHEM_IUPAC_OPENEYE_NAME>
1-(1,2-dimethylpropyl)-2,5-dimethyl-pyrrole
> <PUBCHEM_IUPAC_CAS_NAME>
2,5-dimethyl-1-(3-methylbutan-2-yl)pyrrole
> <PUBCHEM_IUPAC_NAME_MARKUP>
2,5-dimethyl-1-(3-methylbutan-2-yl)pyrrole
> <PUBCHEM_IUPAC_NAME>
2,5-dimethyl-1-(3-methylbutan-2-yl)pyrrole
> <PUBCHEM_IUPAC_SYSTEMATIC_NAME>
2,5-dimethyl-1-(3-methylbutan-2-yl)pyrrole
> <PUBCHEM_IUPAC_TRADITIONAL_NAME>
1-(1,2-dimethylpropyl)-2,5-dimethyl-pyrrole
> <PUBCHEM_IUPAC_INCHI>
InChI=1S/C11H19N/c1-8(2)11(5)12-9(3)6-7-10(12)4/h6-8,11H,1-5H3
> <PUBCHEM_IUPAC_INCHIKEY>
NPXHJRGPLBIVQN-UHFFFAOYSA-N
> <PUBCHEM_XLOGP3_AA>
3.1
> <PUBCHEM_EXACT_MASS>
165.151749610
> <PUBCHEM_MOLECULAR_FORMULA>
C11H19N
> <PUBCHEM_MOLECULAR_WEIGHT>
165.27
> <PUBCHEM_OPENEYE_CAN_SMILES>
CC1=CC=C(N1C(C)C(C)C)C
> <PUBCHEM_OPENEYE_ISO_SMILES>
CC1=CC=C(N1C(C)C(C)C)C
> <PUBCHEM_CACTVS_TPSA>
4.9
> <PUBCHEM_MONOISOTOPIC_WEIGHT>
165.151749610
> <PUBCHEM_TOTAL_CHARGE>
0
> <PUBCHEM_HEAVY_ATOM_COUNT>
12
> <PUBCHEM_ATOM_DEF_STEREO_COUNT>
0
> <PUBCHEM_ATOM_UDEF_STEREO_COUNT>
1
> <PUBCHEM_BOND_DEF_STEREO_COUNT>
0
> <PUBCHEM_BOND_UDEF_STEREO_COUNT>
0
> <PUBCHEM_ISOTOPIC_ATOM_COUNT>
0
> <PUBCHEM_COMPONENT_COUNT>
1
> <PUBCHEM_CACTVS_TAUTO_COUNT>
-1
> <PUBCHEM_COORDINATE_TYPE>
1
5
255
> <PUBCHEM_BONDANNOTATIONS>
1  5  8
1  6  8
2  4  3
5  9  8
6  10  8
9  10  8
$$$$
