527609
  -OEChem-10302200292D
 21 20  0     1  0  0  0  0  0999 V2000
    3.3660   -1.1830    0.0000 Cl  0  0  0  0  0  0  0  0  0  0  0  0
    2.0000   -0.8170    0.0000 Cl  0  0  0  0  0  0  0  0  0  0  0  0
    2.3660    0.5490    0.0000 Cl  0  0  0  0  0  0  0  0  0  0  0  0
    4.5981   -0.3170    0.0000 O   0  0  0  0  0  0  0  0  0  0  0  0
    3.7320    1.1830    0.0000 O   0  0  0  0  0  0  0  0  0  0  0  0
    5.4641    0.1830    0.0000 C   0  0  3  0  0  0  0  0  0  0  0  0
    6.3301   -0.3170    0.0000 C   0  0  0  0  0  0  0  0  0  0  0  0
    5.4641    1.1830    0.0000 C   0  0  0  0  0  0  0  0  0  0  0  0
    7.1962    0.1830    0.0000 C   0  0  0  0  0  0  0  0  0  0  0  0
    3.7320    0.1830    0.0000 C   0  0  0  0  0  0  0  0  0  0  0  0
    2.8660   -0.3170    0.0000 C   0  0  0  0  0  0  0  0  0  0  0  0
    8.0622   -0.3170    0.0000 C   0  0  0  0  0  0  0  0  0  0  0  0
    5.4641   -0.4370    0.0000 H   0  0  0  0  0  0  0  0  0  0  0  0
    5.9316   -0.7919    0.0000 H   0  0  0  0  0  0  0  0  0  0  0  0
    6.7287   -0.7919    0.0000 H   0  0  0  0  0  0  0  0  0  0  0  0
    6.0841    1.1830    0.0000 H   0  0  0  0  0  0  0  0  0  0  0  0
    5.4641    1.8030    0.0000 H   0  0  0  0  0  0  0  0  0  0  0  0
    4.8441    1.1830    0.0000 H   0  0  0  0  0  0  0  0  0  0  0  0
    7.1962    0.8030    0.0000 H   0  0  0  0  0  0  0  0  0  0  0  0
    8.0622   -0.9370    0.0000 H   0  0  0  0  0  0  0  0  0  0  0  0
    8.5991   -0.0070    0.0000 H   0  0  0  0  0  0  0  0  0  0  0  0
  1 11  1  0  0  0  0
  2 11  1  0  0  0  0
  3 11  1  0  0  0  0
  4  6  1  0  0  0  0
  4 10  1  0  0  0  0
  5 10  2  0  0  0  0
  6  7  1  0  0  0  0
  6  8  1  0  0  0  0
  6 13  1  0  0  0  0
  7  9  1  0  0  0  0
  7 14  1  0  0  0  0
  7 15  1  0  0  0  0
  8 16  1  0  0  0  0
  8 17  1  0  0  0  0
  8 18  1  0  0  0  0
  9 12  2  0  0  0  0
  9 19  1  0  0  0  0
 10 11  1  0  0  0  0
 12 20  1  0  0  0  0
 12 21  1  0  0  0  0
M  END
> <PUBCHEM_COMPOUND_CID>
527609
> <PUBCHEM_COMPOUND_CANONICALIZED>
1
> <PUBCHEM_CACTVS_COMPLEXITY>
174
> <PUBCHEM_CACTVS_HBOND_ACCEPTOR>
2
> <PUBCHEM_CACTVS_HBOND_DONOR>
0
> <PUBCHEM_CACTVS_ROTATABLE_BOND>
4
> <PUBCHEM_CACTVS_SUBSKEYS>
AAADccBgMAAGAAAAAAAAAAAAAAAAAAAAAAAAAAAAAAAAAAAAAAAAGgIAAAAACBaggIICCAAABACIACDSCAAAAAAgAAAIAAAAAQhAAAAAAQACAAAAwAAAAAAAAAAAAAAAAAAAAAAAAAAAAAAAAAAAAAAAAA==
> <PUBCHEM_IUPAC_OPENEYE_NAME>
1-methylbut-3-enyl 2,2,2-trichloroacetate
> <PUBCHEM_IUPAC_CAS_NAME>
2,2,2-trichloroacetic acid pent-4-en-2-yl ester
> <PUBCHEM_IUPAC_NAME_MARKUP>
pent-4-en-2-yl 2,2,2-trichloroacetate
> <PUBCHEM_IUPAC_NAME>
pent-4-en-2-yl 2,2,2-trichloroacetate
> <PUBCHEM_IUPAC_SYSTEMATIC_NAME>
pent-4-en-2-yl 2,2,2-tris(chloranyl)ethanoate
> <PUBCHEM_IUPAC_TRADITIONAL_NAME>
2,2,2-trichloroacetic acid 1-methylbut-3-enyl ester
> <PUBCHEM_IUPAC_INCHI>
InChI=1S/C7H9Cl3O2/c1-3-4-5(2)12-6(11)7(8,9)10/h3,5H,1,4H2,2H3
> <PUBCHEM_IUPAC_INCHIKEY>
KCZJXGKHUZQAHL-UHFFFAOYSA-N
> <PUBCHEM_XLOGP3_AA>
3.5
> <PUBCHEM_EXACT_MASS>
229.966813
> <PUBCHEM_MOLECULAR_FORMULA>
C7H9Cl3O2
> <PUBCHEM_MOLECULAR_WEIGHT>
231.5
> <PUBCHEM_OPENEYE_CAN_SMILES>
CC(CC=C)OC(=O)C(Cl)(Cl)Cl
> <PUBCHEM_OPENEYE_ISO_SMILES>
CC(CC=C)OC(=O)C(Cl)(Cl)Cl
> <PUBCHEM_CACTVS_TPSA>
26.3
> <PUBCHEM_MONOISOTOPIC_WEIGHT>
229.966813
> <PUBCHEM_TOTAL_CHARGE>
0
> <PUBCHEM_HEAVY_ATOM_COUNT>
12
> <PUBCHEM_ATOM_DEF_STEREO_COUNT>
0
> <PUBCHEM_ATOM_UDEF_STEREO_COUNT>
1
> <PUBCHEM_BOND_DEF_STEREO_COUNT>
0
> <PUBCHEM_BOND_UDEF_STEREO_COUNT>
0
> <PUBCHEM_ISOTOPIC_ATOM_COUNT>
0
> <PUBCHEM_COMPONENT_COUNT>
1
> <PUBCHEM_CACTVS_TAUTO_COUNT>
-1
> <PUBCHEM_COORDINATE_TYPE>
1
5
255
> <PUBCHEM_BONDANNOTATIONS>
6  8  3
$$$$
