527691
  -OEChem-10302200292D
 19 18  0     1  0  0  0  0  0999 V2000
    8.5991    0.3450    0.0000 Cl  0  0  0  0  0  0  0  0  0  0  0  0
    5.1350    0.3450    0.0000 O   0  0  0  0  0  0  0  0  0  0  0  0
    6.0010   -1.1550    0.0000 O   0  0  0  0  0  0  0  0  0  0  0  0
    7.7331   -0.1550    0.0000 C   0  0  3  0  0  0  0  0  0  0  0  0
    6.8671    0.3450    0.0000 C   0  0  0  0  0  0  0  0  0  0  0  0
    7.7331   -1.1550    0.0000 C   0  0  0  0  0  0  0  0  0  0  0  0
    6.0010   -0.1550    0.0000 C   0  0  0  0  0  0  0  0  0  0  0  0
    4.2690   -0.1550    0.0000 C   0  0  0  0  0  0  0  0  0  0  0  0
    3.4030    0.3450    0.0000 C   0  0  0  0  0  0  0  0  0  0  0  0
    2.5369    0.8450    0.0000 C   0  0  0  0  0  0  0  0  0  0  0  0
    7.7331    0.4650    0.0000 H   0  0  0  0  0  0  0  0  0  0  0  0
    7.2656    0.8199    0.0000 H   0  0  0  0  0  0  0  0  0  0  0  0
    6.4685    0.8199    0.0000 H   0  0  0  0  0  0  0  0  0  0  0  0
    7.1131   -1.1550    0.0000 H   0  0  0  0  0  0  0  0  0  0  0  0
    7.7331   -1.7750    0.0000 H   0  0  0  0  0  0  0  0  0  0  0  0
    8.3531   -1.1550    0.0000 H   0  0  0  0  0  0  0  0  0  0  0  0
    3.8705   -0.6299    0.0000 H   0  0  0  0  0  0  0  0  0  0  0  0
    4.6675   -0.6299    0.0000 H   0  0  0  0  0  0  0  0  0  0  0  0
    2.0000    1.1550    0.0000 H   0  0  0  0  0  0  0  0  0  0  0  0
  1  4  1  0  0  0  0
  2  7  1  0  0  0  0
  2  8  1  0  0  0  0
  3  7  2  0  0  0  0
  4  5  1  0  0  0  0
  4  6  1  0  0  0  0
  4 11  1  0  0  0  0
  5  7  1  0  0  0  0
  5 12  1  0  0  0  0
  5 13  1  0  0  0  0
  6 14  1  0  0  0  0
  6 15  1  0  0  0  0
  6 16  1  0  0  0  0
  8  9  1  0  0  0  0
  8 17  1  0  0  0  0
  8 18  1  0  0  0  0
  9 10  3  0  0  0  0
 10 19  1  0  0  0  0
M  END
> <PUBCHEM_COMPOUND_CID>
527691
> <PUBCHEM_COMPOUND_CANONICALIZED>
1
> <PUBCHEM_CACTVS_COMPLEXITY>
156
> <PUBCHEM_CACTVS_HBOND_ACCEPTOR>
2
> <PUBCHEM_CACTVS_HBOND_DONOR>
0
> <PUBCHEM_CACTVS_ROTATABLE_BOND>
4
> <PUBCHEM_CACTVS_SUBSKEYS>
AAADccBgMAAEAAAAAAAAAAAAAAAAAAAAAAAAAAAAAAAAAAAAAAAAGgIAAAAACAOggEICCAAABABIGACQCAAAAAAAAAAAAAEAAgAAABAAAAACAAAEAAAAAAAAAAAAAAAAAAAAAAAAAAAAAAAAAAAAAAAAAA==
> <PUBCHEM_IUPAC_OPENEYE_NAME>
prop-2-ynyl 3-chlorobutanoate
> <PUBCHEM_IUPAC_CAS_NAME>
3-chlorobutanoic acid prop-2-ynyl ester
> <PUBCHEM_IUPAC_NAME_MARKUP>
prop-2-ynyl 3-chlorobutanoate
> <PUBCHEM_IUPAC_NAME>
prop-2-ynyl 3-chlorobutanoate
> <PUBCHEM_IUPAC_SYSTEMATIC_NAME>
prop-2-ynyl 3-chloranylbutanoate
> <PUBCHEM_IUPAC_TRADITIONAL_NAME>
3-chlorobutyric acid propargyl ester
> <PUBCHEM_IUPAC_INCHI>
InChI=1S/C7H9ClO2/c1-3-4-10-7(9)5-6(2)8/h1,6H,4-5H2,2H3
> <PUBCHEM_IUPAC_INCHIKEY>
SXWQUSUURHRLLH-UHFFFAOYSA-N
> <PUBCHEM_XLOGP3_AA>
1.2
> <PUBCHEM_EXACT_MASS>
160.0291072
> <PUBCHEM_MOLECULAR_FORMULA>
C7H9ClO2
> <PUBCHEM_MOLECULAR_WEIGHT>
160.60
> <PUBCHEM_OPENEYE_CAN_SMILES>
CC(CC(=O)OCC#C)Cl
> <PUBCHEM_OPENEYE_ISO_SMILES>
CC(CC(=O)OCC#C)Cl
> <PUBCHEM_CACTVS_TPSA>
26.3
> <PUBCHEM_MONOISOTOPIC_WEIGHT>
160.0291072
> <PUBCHEM_TOTAL_CHARGE>
0
> <PUBCHEM_HEAVY_ATOM_COUNT>
10
> <PUBCHEM_ATOM_DEF_STEREO_COUNT>
0
> <PUBCHEM_ATOM_UDEF_STEREO_COUNT>
1
> <PUBCHEM_BOND_DEF_STEREO_COUNT>
0
> <PUBCHEM_BOND_UDEF_STEREO_COUNT>
0
> <PUBCHEM_ISOTOPIC_ATOM_COUNT>
0
> <PUBCHEM_COMPONENT_COUNT>
1
> <PUBCHEM_CACTVS_TAUTO_COUNT>
-1
> <PUBCHEM_COORDINATE_TYPE>
1
5
255
> <PUBCHEM_BONDANNOTATIONS>
4  1  3
$$$$
