527744
  -OEChem-10302200292D
 23 23  0     1  0  0  0  0  0999 V2000
    3.7071   -0.7452    0.0000 C   0  0  3  0  0  0  0  0  0  0  0  0
    2.7071   -0.7452    0.0000 C   0  0  0  0  0  0  0  0  0  0  0  0
    4.4142   -0.0381    0.0000 C   0  0  0  0  0  0  0  0  0  0  0  0
    3.7071    1.6690    0.0000 C   0  0  0  0  0  0  0  0  0  0  0  0
    2.7071    1.6690    0.0000 C   0  0  0  0  0  0  0  0  0  0  0  0
    4.0898   -1.6690    0.0000 C   0  0  0  0  0  0  0  0  0  0  0  0
    2.0000   -0.0381    0.0000 C   0  0  0  0  0  0  0  0  0  0  0  0
    4.4142    0.9619    0.0000 C   0  0  0  0  0  0  0  0  0  0  0  0
    2.0000    0.9619    0.0000 C   0  0  0  0  0  0  0  0  0  0  0  0
    3.3626   -1.2607    0.0000 H   0  0  0  0  0  0  0  0  0  0  0  0
    2.1702   -1.0552    0.0000 H   0  0  0  0  0  0  0  0  0  0  0  0
    2.8676   -1.3440    0.0000 H   0  0  0  0  0  0  0  0  0  0  0  0
    4.9870   -0.2753    0.0000 H   0  0  0  0  0  0  0  0  0  0  0  0
    4.2440    1.9790    0.0000 H   0  0  0  0  0  0  0  0  0  0  0  0
    3.5466    2.2679    0.0000 H   0  0  0  0  0  0  0  0  0  0  0  0
    2.8676    2.2679    0.0000 H   0  0  0  0  0  0  0  0  0  0  0  0
    2.1702    1.9790    0.0000 H   0  0  0  0  0  0  0  0  0  0  0  0
    3.5170   -1.9063    0.0000 H   0  0  0  0  0  0  0  0  0  0  0  0
    4.3270   -2.2418    0.0000 H   0  0  0  0  0  0  0  0  0  0  0  0
    4.6626   -1.4318    0.0000 H   0  0  0  0  0  0  0  0  0  0  0  0
    1.4272   -0.2753    0.0000 H   0  0  0  0  0  0  0  0  0  0  0  0
    4.9870    1.1992    0.0000 H   0  0  0  0  0  0  0  0  0  0  0  0
    1.4272    1.1992    0.0000 H   0  0  0  0  0  0  0  0  0  0  0  0
  1  2  1  0  0  0  0
  1  3  1  0  0  0  0
  1  6  1  0  0  0  0
  1 10  1  0  0  0  0
  2  7  1  0  0  0  0
  2 11  1  0  0  0  0
  2 12  1  0  0  0  0
  3  8  2  3  0  0  0
  3 13  1  0  0  0  0
  4  5  1  0  0  0  0
  4  8  1  0  0  0  0
  4 14  1  0  0  0  0
  4 15  1  0  0  0  0
  5  9  1  0  0  0  0
  5 16  1  0  0  0  0
  5 17  1  0  0  0  0
  6 18  1  0  0  0  0
  6 19  1  0  0  0  0
  6 20  1  0  0  0  0
  7  9  2  3  0  0  0
  7 21  1  0  0  0  0
  8 22  1  0  0  0  0
  9 23  1  0  0  0  0
M  END
> <PUBCHEM_COMPOUND_CID>
527744
> <PUBCHEM_COMPOUND_CANONICALIZED>
1
> <PUBCHEM_CACTVS_COMPLEXITY>
120
> <PUBCHEM_CACTVS_HBOND_ACCEPTOR>
0
> <PUBCHEM_CACTVS_HBOND_DONOR>
0
> <PUBCHEM_CACTVS_ROTATABLE_BOND>
0
> <PUBCHEM_CACTVS_SUBSKEYS>
AAADccBwAAAAAAAAAAAAAAAAAAAAAAAAAAAAAAAAAAAQAAAAAAAAGAAAAAAADQCAAAACAAAAAACAACBCAAAAAAAgAAAICAAAAAgAAAAAAQAAAAAAgAAIAAIAAAAIAAAAAAAAAAAAAAAAAAAAAAAAAAAAAA==
> <PUBCHEM_IUPAC_OPENEYE_NAME>
3-methylcycloocta-1,5-diene
> <PUBCHEM_IUPAC_CAS_NAME>
3-methylcycloocta-1,5-diene
> <PUBCHEM_IUPAC_NAME_MARKUP>
3-methylcycloocta-1,5-diene
> <PUBCHEM_IUPAC_NAME>
3-methylcycloocta-1,5-diene
> <PUBCHEM_IUPAC_SYSTEMATIC_NAME>
3-methylcycloocta-1,5-diene
> <PUBCHEM_IUPAC_TRADITIONAL_NAME>
3-methylcycloocta-1,5-diene
> <PUBCHEM_IUPAC_INCHI>
InChI=1S/C9H14/c1-9-7-5-3-2-4-6-8-9/h3,5-6,8-9H,2,4,7H2,1H3
> <PUBCHEM_IUPAC_INCHIKEY>
WEPNHFXHEPXGAL-UHFFFAOYSA-N
> <PUBCHEM_XLOGP3_AA>
3.1
> <PUBCHEM_EXACT_MASS>
122.109550447
> <PUBCHEM_MOLECULAR_FORMULA>
C9H14
> <PUBCHEM_MOLECULAR_WEIGHT>
122.21
> <PUBCHEM_OPENEYE_CAN_SMILES>
CC1CC=CCCC=C1
> <PUBCHEM_OPENEYE_ISO_SMILES>
CC1CC=CCCC=C1
> <PUBCHEM_CACTVS_TPSA>
0
> <PUBCHEM_MONOISOTOPIC_WEIGHT>
122.109550447
> <PUBCHEM_TOTAL_CHARGE>
0
> <PUBCHEM_HEAVY_ATOM_COUNT>
9
> <PUBCHEM_ATOM_DEF_STEREO_COUNT>
0
> <PUBCHEM_ATOM_UDEF_STEREO_COUNT>
1
> <PUBCHEM_BOND_DEF_STEREO_COUNT>
0
> <PUBCHEM_BOND_UDEF_STEREO_COUNT>
2
> <PUBCHEM_ISOTOPIC_ATOM_COUNT>
0
> <PUBCHEM_COMPONENT_COUNT>
1
> <PUBCHEM_CACTVS_TAUTO_COUNT>
-1
> <PUBCHEM_COORDINATE_TYPE>
1
5
255
> <PUBCHEM_BONDANNOTATIONS>
1  6  3
3  8  1
7  9  1
$$$$
