527831
  -OEChem-10302200292D
 41 40  0     1  0  0  0  0  0999 V2000
    6.3301    1.4050    0.0000 O   0  0  0  0  0  0  0  0  0  0  0  0
    5.4641    2.9050    0.0000 O   0  0  0  0  0  0  0  0  0  0  0  0
    2.8660    0.4050    0.0000 O   0  0  0  0  0  0  0  0  0  0  0  0
    3.7320    1.9050    0.0000 N   0  0  0  0  0  0  0  0  0  0  0  0
    6.3301   -2.5950    0.0000 N   0  0  0  0  0  0  0  0  0  0  0  0
    4.5981    0.4050    0.0000 C   0  0  0  0  0  0  0  0  0  0  0  0
    4.5981    1.4050    0.0000 C   0  0  3  0  0  0  0  0  0  0  0  0
    5.4641   -0.0950    0.0000 C   0  0  0  0  0  0  0  0  0  0  0  0
    5.4641   -1.0950    0.0000 C   0  0  0  0  0  0  0  0  0  0  0  0
    5.4641    1.9050    0.0000 C   0  0  0  0  0  0  0  0  0  0  0  0
    6.3301   -1.5950    0.0000 C   0  0  0  0  0  0  0  0  0  0  0  0
    7.1962    1.9050    0.0000 C   0  0  0  0  0  0  0  0  0  0  0  0
    8.0622    1.4050    0.0000 C   0  0  0  0  0  0  0  0  0  0  0  0
    8.9282    1.9050    0.0000 C   0  0  0  0  0  0  0  0  0  0  0  0
    2.8660    1.4050    0.0000 C   0  0  0  0  0  0  0  0  0  0  0  0
    9.7942    1.4050    0.0000 C   0  0  0  0  0  0  0  0  0  0  0  0
    2.0000    1.9050    0.0000 C   0  0  0  0  0  0  0  0  0  0  0  0
    3.9875    0.5127    0.0000 H   0  0  0  0  0  0  0  0  0  0  0  0
    4.3860   -0.1776    0.0000 H   0  0  0  0  0  0  0  0  0  0  0  0
    4.5981    2.0250    0.0000 H   0  0  0  0  0  0  0  0  0  0  0  0
    6.0747   -0.2027    0.0000 H   0  0  0  0  0  0  0  0  0  0  0  0
    5.6762    0.4876    0.0000 H   0  0  0  0  0  0  0  0  0  0  0  0
    4.8535   -0.9873    0.0000 H   0  0  0  0  0  0  0  0  0  0  0  0
    5.2520   -1.6776    0.0000 H   0  0  0  0  0  0  0  0  0  0  0  0
    6.9407   -1.7027    0.0000 H   0  0  0  0  0  0  0  0  0  0  0  0
    6.5422   -1.0124    0.0000 H   0  0  0  0  0  0  0  0  0  0  0  0
    3.7320    2.5250    0.0000 H   0  0  0  0  0  0  0  0  0  0  0  0
    7.6636    0.9301    0.0000 H   0  0  0  0  0  0  0  0  0  0  0  0
    8.4607    0.9301    0.0000 H   0  0  0  0  0  0  0  0  0  0  0  0
    7.5947    2.3800    0.0000 H   0  0  0  0  0  0  0  0  0  0  0  0
    6.7976    2.3800    0.0000 H   0  0  0  0  0  0  0  0  0  0  0  0
    9.3267    2.3800    0.0000 H   0  0  0  0  0  0  0  0  0  0  0  0
    8.5297    2.3800    0.0000 H   0  0  0  0  0  0  0  0  0  0  0  0
    6.8671   -2.9050    0.0000 H   0  0  0  0  0  0  0  0  0  0  0  0
    5.7932   -2.9050    0.0000 H   0  0  0  0  0  0  0  0  0  0  0  0
    9.4842    0.8681    0.0000 H   0  0  0  0  0  0  0  0  0  0  0  0
   10.3312    1.0950    0.0000 H   0  0  0  0  0  0  0  0  0  0  0  0
   10.1042    1.9419    0.0000 H   0  0  0  0  0  0  0  0  0  0  0  0
    2.3100    2.4419    0.0000 H   0  0  0  0  0  0  0  0  0  0  0  0
    1.4631    2.2150    0.0000 H   0  0  0  0  0  0  0  0  0  0  0  0
    1.6900    1.3681    0.0000 H   0  0  0  0  0  0  0  0  0  0  0  0
  1 10  1  0  0  0  0
  1 12  1  0  0  0  0
  2 10  2  0  0  0  0
  3 15  2  0  0  0  0
  4  7  1  0  0  0  0
  4 15  1  0  0  0  0
  4 27  1  0  0  0  0
  5 11  1  0  0  0  0
  5 34  1  0  0  0  0
  5 35  1  0  0  0  0
  6  7  1  0  0  0  0
  6  8  1  0  0  0  0
  6 18  1  0  0  0  0
  6 19  1  0  0  0  0
  7 10  1  0  0  0  0
  7 20  1  0  0  0  0
  8  9  1  0  0  0  0
  8 21  1  0  0  0  0
  8 22  1  0  0  0  0
  9 11  1  0  0  0  0
  9 23  1  0  0  0  0
  9 24  1  0  0  0  0
 11 25  1  0  0  0  0
 11 26  1  0  0  0  0
 12 13  1  0  0  0  0
 12 30  1  0  0  0  0
 12 31  1  0  0  0  0
 13 14  1  0  0  0  0
 13 28  1  0  0  0  0
 13 29  1  0  0  0  0
 14 16  1  0  0  0  0
 14 32  1  0  0  0  0
 14 33  1  0  0  0  0
 15 17  1  0  0  0  0
 16 36  1  0  0  0  0
 16 37  1  0  0  0  0
 16 38  1  0  0  0  0
 17 39  1  0  0  0  0
 17 40  1  0  0  0  0
 17 41  1  0  0  0  0
M  END
> <PUBCHEM_COMPOUND_CID>
527831
> <PUBCHEM_COMPOUND_CANONICALIZED>
1
> <PUBCHEM_CACTVS_COMPLEXITY>
232
> <PUBCHEM_CACTVS_HBOND_ACCEPTOR>
4
> <PUBCHEM_CACTVS_HBOND_DONOR>
2
> <PUBCHEM_CACTVS_ROTATABLE_BOND>
10
> <PUBCHEM_CACTVS_SUBSKEYS>
AAADceBzMAAAAAAAAAAAAAAAAAAAAAAAAAAAAAAAAAAAAAAAAAAAHgAQAAAACCjhgAYCCALABAAIAAGQGAAAAAAAAAAAAIGIAAACABIAgCAHAAAEFgCQAAGYSAAAAAAAAAAAAAAAAAAAAAAAAAAAAAAAAA==
> <PUBCHEM_IUPAC_OPENEYE_NAME>
butyl 2-acetamido-6-amino-hexanoate
> <PUBCHEM_IUPAC_CAS_NAME>
2-acetamido-6-aminohexanoic acid butyl ester
> <PUBCHEM_IUPAC_NAME_MARKUP>
butyl 2-acetamido-6-aminohexanoate
> <PUBCHEM_IUPAC_NAME>
butyl 2-acetamido-6-aminohexanoate
> <PUBCHEM_IUPAC_SYSTEMATIC_NAME>
butyl 2-acetamido-6-azanyl-hexanoate
> <PUBCHEM_IUPAC_TRADITIONAL_NAME>
2-acetamido-6-amino-hexanoic acid butyl ester
> <PUBCHEM_IUPAC_INCHI>
InChI=1S/C12H24N2O3/c1-3-4-9-17-12(16)11(14-10(2)15)7-5-6-8-13/h11H,3-9,13H2,1-2H3,(H,14,15)
> <PUBCHEM_IUPAC_INCHIKEY>
NHFKYFOFZQOTNF-UHFFFAOYSA-N
> <PUBCHEM_XLOGP3>
-0.6
> <PUBCHEM_EXACT_MASS>
244.17869263
> <PUBCHEM_MOLECULAR_FORMULA>
C12H24N2O3
> <PUBCHEM_MOLECULAR_WEIGHT>
244.33
> <PUBCHEM_OPENEYE_CAN_SMILES>
CCCCOC(=O)C(CCCCN)NC(=O)C
> <PUBCHEM_OPENEYE_ISO_SMILES>
CCCCOC(=O)C(CCCCN)NC(=O)C
> <PUBCHEM_CACTVS_TPSA>
81.4
> <PUBCHEM_MONOISOTOPIC_WEIGHT>
244.17869263
> <PUBCHEM_TOTAL_CHARGE>
0
> <PUBCHEM_HEAVY_ATOM_COUNT>
17
> <PUBCHEM_ATOM_DEF_STEREO_COUNT>
0
> <PUBCHEM_ATOM_UDEF_STEREO_COUNT>
1
> <PUBCHEM_BOND_DEF_STEREO_COUNT>
0
> <PUBCHEM_BOND_UDEF_STEREO_COUNT>
0
> <PUBCHEM_ISOTOPIC_ATOM_COUNT>
0
> <PUBCHEM_COMPONENT_COUNT>
1
> <PUBCHEM_CACTVS_TAUTO_COUNT>
-1
> <PUBCHEM_COORDINATE_TYPE>
1
5
255
> <PUBCHEM_BONDANNOTATIONS>
7  6  3
$$$$
