527834
  -OEChem-10302200292D
 54 55  0     1  0  0  0  0  0999 V2000
   10.0512    2.3576    0.0000 F   0  0  0  0  0  0  0  0  0  0  0  0
   11.4172    1.9916    0.0000 F   0  0  0  0  0  0  0  0  0  0  0  0
   11.0512    0.6255    0.0000 F   0  0  0  0  0  0  0  0  0  0  0  0
   14.0905   -0.3383    0.0000 F   0  0  0  0  0  0  0  0  0  0  0  0
   13.4484   -1.5984    0.0000 F   0  0  0  0  0  0  0  0  0  0  0  0
   12.8304    0.3037    0.0000 F   0  0  0  0  0  0  0  0  0  0  0  0
   11.4452   -0.2872    0.0000 O   0  0  0  0  0  0  0  0  0  0  0  0
    7.7172    0.6909    0.0000 O   0  0  0  0  0  0  0  0  0  0  0  0
    4.8025    0.2697    0.0000 O   0  0  0  0  0  0  0  0  0  0  0  0
    8.8191    1.4916    0.0000 O   0  0  0  0  0  0  0  0  0  0  0  0
    6.3848    0.9741    0.0000 O   0  0  0  0  0  0  0  0  0  0  0  0
   11.9804   -1.9345    0.0000 O   0  0  0  0  0  0  0  0  0  0  0  0
    7.1819   -0.9563    0.0000 N   0  0  0  0  0  0  0  0  0  0  0  0
    9.6851   -0.0084    0.0000 N   0  0  0  0  0  0  0  0  0  0  0  0
    8.8761   -0.5962    0.0000 C   0  0  3  0  0  0  0  0  0  0  0  0
    9.1851   -1.5473    0.0000 C   0  0  0  0  0  0  0  0  0  0  0  0
    6.2038   -0.7484    0.0000 C   0  0  3  0  0  0  0  0  0  0  0  0
   10.4942   -0.5962    0.0000 C   0  0  3  0  0  0  0  0  0  0  0  0
   10.1851   -1.5473    0.0000 C   0  0  0  0  0  0  0  0  0  0  0  0
    7.9251   -0.2872    0.0000 C   0  0  0  0  0  0  0  0  0  0  0  0
    7.2864   -1.9508    0.0000 C   0  0  0  0  0  0  0  0  0  0  0  0
    5.7038   -1.6144    0.0000 C   0  0  0  0  0  0  0  0  0  0  0  0
    6.3729   -2.3576    0.0000 C   0  0  0  0  0  0  0  0  0  0  0  0
    9.6851    0.9916    0.0000 C   0  0  0  0  0  0  0  0  0  0  0  0
    5.7970    0.1651    0.0000 C   0  0  0  0  0  0  0  0  0  0  0  0
   10.5512    1.4916    0.0000 C   0  0  0  0  0  0  0  0  0  0  0  0
   12.1884   -0.9563    0.0000 C   0  0  0  0  0  0  0  0  0  0  0  0
    4.3958    1.1832    0.0000 C   0  0  0  0  0  0  0  0  0  0  0  0
    3.4013    1.2877    0.0000 C   0  0  0  0  0  0  0  0  0  0  0  0
   13.1394   -0.6473    0.0000 C   0  0  0  0  0  0  0  0  0  0  0  0
    2.9945    2.2013    0.0000 C   0  0  0  0  0  0  0  0  0  0  0  0
    2.0000    2.3058    0.0000 C   0  0  0  0  0  0  0  0  0  0  0  0
    8.7791    0.0161    0.0000 H   0  0  0  0  0  0  0  0  0  0  0  0
    8.5787   -1.6762    0.0000 H   0  0  0  0  0  0  0  0  0  0  0  0
    9.2500   -2.1639    0.0000 H   0  0  0  0  0  0  0  0  0  0  0  0
    6.5940   -0.2666    0.0000 H   0  0  0  0  0  0  0  0  0  0  0  0
   10.9326   -1.0346    0.0000 H   0  0  0  0  0  0  0  0  0  0  0  0
   10.1203   -2.1639    0.0000 H   0  0  0  0  0  0  0  0  0  0  0  0
   10.7916   -1.6762    0.0000 H   0  0  0  0  0  0  0  0  0  0  0  0
    7.4780   -2.5405    0.0000 H   0  0  0  0  0  0  0  0  0  0  0  0
    7.8929   -1.8220    0.0000 H   0  0  0  0  0  0  0  0  0  0  0  0
    5.2022   -1.2500    0.0000 H   0  0  0  0  0  0  0  0  0  0  0  0
    5.2889   -2.0752    0.0000 H   0  0  0  0  0  0  0  0  0  0  0  0
    5.8713   -2.7220    0.0000 H   0  0  0  0  0  0  0  0  0  0  0  0
    6.6829   -2.8945    0.0000 H   0  0  0  0  0  0  0  0  0  0  0  0
    4.9974    1.3332    0.0000 H   0  0  0  0  0  0  0  0  0  0  0  0
    4.3525    1.8017    0.0000 H   0  0  0  0  0  0  0  0  0  0  0  0
    2.7997    1.1377    0.0000 H   0  0  0  0  0  0  0  0  0  0  0  0
    3.4445    0.6692    0.0000 H   0  0  0  0  0  0  0  0  0  0  0  0
    3.5961    2.3513    0.0000 H   0  0  0  0  0  0  0  0  0  0  0  0
    2.9513    2.8198    0.0000 H   0  0  0  0  0  0  0  0  0  0  0  0
    2.0648    2.9224    0.0000 H   0  0  0  0  0  0  0  0  0  0  0  0
    1.3834    2.3706    0.0000 H   0  0  0  0  0  0  0  0  0  0  0  0
    1.9352    1.6892    0.0000 H   0  0  0  0  0  0  0  0  0  0  0  0
  1 26  1  0  0  0  0
  2 26  1  0  0  0  0
  3 26  1  0  0  0  0
  4 30  1  0  0  0  0
  5 30  1  0  0  0  0
  6 30  1  0  0  0  0
  7 18  1  0  0  0  0
  7 27  1  0  0  0  0
  8 20  2  0  0  0  0
  9 25  1  0  0  0  0
  9 28  1  0  0  0  0
 10 24  2  0  0  0  0
 11 25  2  0  0  0  0
 12 27  2  0  0  0  0
 13 17  1  0  0  0  0
 13 20  1  0  0  0  0
 13 21  1  0  0  0  0
 14 15  1  0  0  0  0
 14 18  1  0  0  0  0
 14 24  1  0  0  0  0
 15 16  1  0  0  0  0
 15 20  1  0  0  0  0
 15 33  1  0  0  0  0
 16 19  1  0  0  0  0
 16 34  1  0  0  0  0
 16 35  1  0  0  0  0
 17 22  1  0  0  0  0
 17 25  1  0  0  0  0
 17 36  1  0  0  0  0
 18 19  1  0  0  0  0
 18 37  1  0  0  0  0
 19 38  1  0  0  0  0
 19 39  1  0  0  0  0
 21 23  1  0  0  0  0
 21 40  1  0  0  0  0
 21 41  1  0  0  0  0
 22 23  1  0  0  0  0
 22 42  1  0  0  0  0
 22 43  1  0  0  0  0
 23 44  1  0  0  0  0
 23 45  1  0  0  0  0
 24 26  1  0  0  0  0
 27 30  1  0  0  0  0
 28 29  1  0  0  0  0
 28 46  1  0  0  0  0
 28 47  1  0  0  0  0
 29 31  1  0  0  0  0
 29 48  1  0  0  0  0
 29 49  1  0  0  0  0
 31 32  1  0  0  0  0
 31 50  1  0  0  0  0
 31 51  1  0  0  0  0
 32 52  1  0  0  0  0
 32 53  1  0  0  0  0
 32 54  1  0  0  0  0
M  END
> <PUBCHEM_COMPOUND_CID>
527834
> <PUBCHEM_COMPOUND_CANONICALIZED>
1
> <PUBCHEM_CACTVS_COMPLEXITY>
741
> <PUBCHEM_CACTVS_HBOND_ACCEPTOR>
12
> <PUBCHEM_CACTVS_HBOND_DONOR>
0
> <PUBCHEM_CACTVS_ROTATABLE_BOND>
8
> <PUBCHEM_CACTVS_SUBSKEYS>
AAADceB7OcAAAAAAAAAAAAAAAAAAAWLAAAAAAAAAAAAAAAAAAAAAHwAAAAAACCjhgBYCCAMABAAIAAGQGAAAAAAAAAAAAAGIAAACQBIAgCAfAAAEBgCQAAC4FQIAAAAAAAAAAAAAAAAAAAAAAAAAAAAAAA==
> <PUBCHEM_IUPAC_OPENEYE_NAME>
butyl 1-[1-(2,2,2-trifluoroacetyl)-5-(2,2,2-trifluoroacetyl)oxy-pyrrolidine-2-carbonyl]pyrrolidine-2-carboxylate
> <PUBCHEM_IUPAC_CAS_NAME>
1-[oxo-[5-(2,2,2-trifluoro-1-oxoethoxy)-1-(2,2,2-trifluoro-1-oxoethyl)-2-pyrrolidinyl]methyl]-2-pyrrolidinecarboxylic acid butyl ester
> <PUBCHEM_IUPAC_NAME_MARKUP>
butyl 1-[1-(2,2,2-trifluoroacetyl)-5-(2,2,2-trifluoroacetyl)oxypyrrolidine-2-carbonyl]pyrrolidine-2-carboxylate
> <PUBCHEM_IUPAC_NAME>
butyl 1-[1-(2,2,2-trifluoroacetyl)-5-(2,2,2-trifluoroacetyl)oxypyrrolidine-2-carbonyl]pyrrolidine-2-carboxylate
> <PUBCHEM_IUPAC_SYSTEMATIC_NAME>
butyl 1-[1-[2,2,2-tris(fluoranyl)ethanoyl]-5-[2,2,2-tris(fluoranyl)ethanoyloxy]pyrrolidin-2-yl]carbonylpyrrolidine-2-carboxylate
> <PUBCHEM_IUPAC_TRADITIONAL_NAME>
1-[1-(2,2,2-trifluoroacetyl)-5-(2,2,2-trifluoroacetyl)oxy-prolyl]pyrrolidine-2-carboxylic acid butyl ester
> <PUBCHEM_IUPAC_INCHI>
InChI=1S/C18H22F6N2O6/c1-2-3-9-31-14(28)11-5-4-8-25(11)13(27)10-6-7-12(32-16(30)18(22,23)24)26(10)15(29)17(19,20)21/h10-12H,2-9H2,1H3
> <PUBCHEM_IUPAC_INCHIKEY>
ITDKFROWSJMGEZ-UHFFFAOYSA-N
> <PUBCHEM_XLOGP3_AA>
3.8
> <PUBCHEM_EXACT_MASS>
476.13820540
> <PUBCHEM_MOLECULAR_FORMULA>
C18H22F6N2O6
> <PUBCHEM_MOLECULAR_WEIGHT>
476.4
> <PUBCHEM_OPENEYE_CAN_SMILES>
CCCCOC(=O)C1CCCN1C(=O)C2CCC(N2C(=O)C(F)(F)F)OC(=O)C(F)(F)F
> <PUBCHEM_OPENEYE_ISO_SMILES>
CCCCOC(=O)C1CCCN1C(=O)C2CCC(N2C(=O)C(F)(F)F)OC(=O)C(F)(F)F
> <PUBCHEM_CACTVS_TPSA>
93.2
> <PUBCHEM_MONOISOTOPIC_WEIGHT>
476.13820540
> <PUBCHEM_TOTAL_CHARGE>
0
> <PUBCHEM_HEAVY_ATOM_COUNT>
32
> <PUBCHEM_ATOM_DEF_STEREO_COUNT>
0
> <PUBCHEM_ATOM_UDEF_STEREO_COUNT>
3
> <PUBCHEM_BOND_DEF_STEREO_COUNT>
0
> <PUBCHEM_BOND_UDEF_STEREO_COUNT>
0
> <PUBCHEM_ISOTOPIC_ATOM_COUNT>
0
> <PUBCHEM_COMPONENT_COUNT>
1
> <PUBCHEM_CACTVS_TAUTO_COUNT>
-1
> <PUBCHEM_COORDINATE_TYPE>
1
5
255
> <PUBCHEM_BONDANNOTATIONS>
15  20  3
17  25  3
18  7  3
$$$$
