527885
  -OEChem-10302200292D
 17 16  0     1  0  0  0  0  0999 V2000
    2.0000    0.2500    0.0000 Cl  0  0  0  0  0  0  0  0  0  0  0  0
    4.5981   -0.2500    0.0000 O   0  0  0  0  0  0  0  0  0  0  0  0
    5.4641    1.2500    0.0000 O   0  0  0  0  0  0  0  0  0  0  0  0
    2.8660   -0.2500    0.0000 C   0  0  3  0  0  0  0  0  0  0  0  0
    3.7320    0.2500    0.0000 C   0  0  0  0  0  0  0  0  0  0  0  0
    2.8660   -1.2500    0.0000 C   0  0  0  0  0  0  0  0  0  0  0  0
    5.4641    0.2500    0.0000 C   0  0  0  0  0  0  0  0  0  0  0  0
    6.3301   -0.2500    0.0000 C   0  0  0  0  0  0  0  0  0  0  0  0
    2.8660    0.3700    0.0000 H   0  0  0  0  0  0  0  0  0  0  0  0
    4.1306    0.7249    0.0000 H   0  0  0  0  0  0  0  0  0  0  0  0
    3.3335    0.7249    0.0000 H   0  0  0  0  0  0  0  0  0  0  0  0
    2.2460   -1.2500    0.0000 H   0  0  0  0  0  0  0  0  0  0  0  0
    2.8660   -1.8700    0.0000 H   0  0  0  0  0  0  0  0  0  0  0  0
    3.4860   -1.2500    0.0000 H   0  0  0  0  0  0  0  0  0  0  0  0
    6.0201   -0.7869    0.0000 H   0  0  0  0  0  0  0  0  0  0  0  0
    6.8671   -0.5600    0.0000 H   0  0  0  0  0  0  0  0  0  0  0  0
    6.6401    0.2869    0.0000 H   0  0  0  0  0  0  0  0  0  0  0  0
  1  4  1  0  0  0  0
  2  5  1  0  0  0  0
  2  7  1  0  0  0  0
  3  7  2  0  0  0  0
  4  5  1  0  0  0  0
  4  6  1  0  0  0  0
  4  9  1  0  0  0  0
  5 10  1  0  0  0  0
  5 11  1  0  0  0  0
  6 12  1  0  0  0  0
  6 13  1  0  0  0  0
  6 14  1  0  0  0  0
  7  8  1  0  0  0  0
  8 15  1  0  0  0  0
  8 16  1  0  0  0  0
  8 17  1  0  0  0  0
M  END
> <PUBCHEM_COMPOUND_CID>
527885
> <PUBCHEM_COMPOUND_CANONICALIZED>
1
> <PUBCHEM_CACTVS_COMPLEXITY>
82.5
> <PUBCHEM_CACTVS_HBOND_ACCEPTOR>
2
> <PUBCHEM_CACTVS_HBOND_DONOR>
0
> <PUBCHEM_CACTVS_ROTATABLE_BOND>
3
> <PUBCHEM_CACTVS_SUBSKEYS>
AAADccBgMAAEAAAAAAAAAAAAAAAAAAAAAAAAAAAAAAAAAAAAAAAAGgIAAAAACAOggEICCAAABAAIAACQCAAAAAAAAAAAAAAAAQAAAAAAAAACAAAAAAAAAAAAAAAAAAAAAAAAAAAAAAAAAAAAAAAAAAAAAA==
> <PUBCHEM_IUPAC_OPENEYE_NAME>
2-chloropropyl acetate
> <PUBCHEM_IUPAC_CAS_NAME>
acetic acid 2-chloropropyl ester
> <PUBCHEM_IUPAC_NAME_MARKUP>
2-chloropropyl acetate
> <PUBCHEM_IUPAC_NAME>
2-chloropropyl acetate
> <PUBCHEM_IUPAC_SYSTEMATIC_NAME>
2-chloranylpropyl ethanoate
> <PUBCHEM_IUPAC_TRADITIONAL_NAME>
acetic acid 2-chloropropyl ester
> <PUBCHEM_IUPAC_INCHI>
InChI=1S/C5H9ClO2/c1-4(6)3-8-5(2)7/h4H,3H2,1-2H3
> <PUBCHEM_IUPAC_INCHIKEY>
DXCQFTYOBQILML-UHFFFAOYSA-N
> <PUBCHEM_XLOGP3_AA>
1.1
> <PUBCHEM_EXACT_MASS>
136.0291072
> <PUBCHEM_MOLECULAR_FORMULA>
C5H9ClO2
> <PUBCHEM_MOLECULAR_WEIGHT>
136.58
> <PUBCHEM_OPENEYE_CAN_SMILES>
CC(COC(=O)C)Cl
> <PUBCHEM_OPENEYE_ISO_SMILES>
CC(COC(=O)C)Cl
> <PUBCHEM_CACTVS_TPSA>
26.3
> <PUBCHEM_MONOISOTOPIC_WEIGHT>
136.0291072
> <PUBCHEM_TOTAL_CHARGE>
0
> <PUBCHEM_HEAVY_ATOM_COUNT>
8
> <PUBCHEM_ATOM_DEF_STEREO_COUNT>
0
> <PUBCHEM_ATOM_UDEF_STEREO_COUNT>
1
> <PUBCHEM_BOND_DEF_STEREO_COUNT>
0
> <PUBCHEM_BOND_UDEF_STEREO_COUNT>
0
> <PUBCHEM_ISOTOPIC_ATOM_COUNT>
0
> <PUBCHEM_COMPONENT_COUNT>
1
> <PUBCHEM_CACTVS_TAUTO_COUNT>
-1
> <PUBCHEM_COORDINATE_TYPE>
1
5
255
> <PUBCHEM_BONDANNOTATIONS>
4  1  3
$$$$
