527866
  -OEChem-10302200292D
 26 25  0     1  0  0  0  0  0999 V2000
    6.3301   -0.7500    0.0000 Cl  0  0  0  0  0  0  0  0  0  0  0  0
    7.1962    0.7500    0.0000 O   0  0  0  0  0  0  0  0  0  0  0  0
    8.0622   -0.7500    0.0000 O   0  0  0  0  0  0  0  0  0  0  0  0
    4.5981    0.2500    0.0000 C   0  0  0  0  0  0  0  0  0  0  0  0
    3.7320    0.7500    0.0000 C   0  0  0  0  0  0  0  0  0  0  0  0
    5.4641    0.7500    0.0000 C   0  0  0  0  0  0  0  0  0  0  0  0
    2.8660    0.2500    0.0000 C   0  0  0  0  0  0  0  0  0  0  0  0
    6.3301    0.2500    0.0000 C   0  0  3  0  0  0  0  0  0  0  0  0
    2.0000    0.7500    0.0000 C   0  0  0  0  0  0  0  0  0  0  0  0
    8.0622    0.2500    0.0000 C   0  0  0  0  0  0  0  0  0  0  0  0
    8.9282    0.7500    0.0000 C   0  0  0  0  0  0  0  0  0  0  0  0
    4.1996   -0.2249    0.0000 H   0  0  0  0  0  0  0  0  0  0  0  0
    4.9966   -0.2249    0.0000 H   0  0  0  0  0  0  0  0  0  0  0  0
    4.1306    1.2250    0.0000 H   0  0  0  0  0  0  0  0  0  0  0  0
    3.3335    1.2250    0.0000 H   0  0  0  0  0  0  0  0  0  0  0  0
    5.8626    1.2250    0.0000 H   0  0  0  0  0  0  0  0  0  0  0  0
    5.0656    1.2250    0.0000 H   0  0  0  0  0  0  0  0  0  0  0  0
    2.4675   -0.2249    0.0000 H   0  0  0  0  0  0  0  0  0  0  0  0
    3.2646   -0.2249    0.0000 H   0  0  0  0  0  0  0  0  0  0  0  0
    6.3301    0.8700    0.0000 H   0  0  0  0  0  0  0  0  0  0  0  0
    2.3100    1.2869    0.0000 H   0  0  0  0  0  0  0  0  0  0  0  0
    1.4631    1.0600    0.0000 H   0  0  0  0  0  0  0  0  0  0  0  0
    1.6900    0.2131    0.0000 H   0  0  0  0  0  0  0  0  0  0  0  0
    9.2382    0.2131    0.0000 H   0  0  0  0  0  0  0  0  0  0  0  0
    9.4651    1.0600    0.0000 H   0  0  0  0  0  0  0  0  0  0  0  0
    8.6182    1.2869    0.0000 H   0  0  0  0  0  0  0  0  0  0  0  0
  1  8  1  0  0  0  0
  2  8  1  0  0  0  0
  2 10  1  0  0  0  0
  3 10  2  0  0  0  0
  4  5  1  0  0  0  0
  4  6  1  0  0  0  0
  4 12  1  0  0  0  0
  4 13  1  0  0  0  0
  5  7  1  0  0  0  0
  5 14  1  0  0  0  0
  5 15  1  0  0  0  0
  6  8  1  0  0  0  0
  6 16  1  0  0  0  0
  6 17  1  0  0  0  0
  7  9  1  0  0  0  0
  7 18  1  0  0  0  0
  7 19  1  0  0  0  0
  8 20  1  0  0  0  0
  9 21  1  0  0  0  0
  9 22  1  0  0  0  0
  9 23  1  0  0  0  0
 10 11  1  0  0  0  0
 11 24  1  0  0  0  0
 11 25  1  0  0  0  0
 11 26  1  0  0  0  0
M  END
> <PUBCHEM_COMPOUND_CID>
527866
> <PUBCHEM_COMPOUND_CANONICALIZED>
1
> <PUBCHEM_CACTVS_COMPLEXITY>
115
> <PUBCHEM_CACTVS_HBOND_ACCEPTOR>
2
> <PUBCHEM_CACTVS_HBOND_DONOR>
0
> <PUBCHEM_CACTVS_ROTATABLE_BOND>
6
> <PUBCHEM_CACTVS_SUBSKEYS>
AAADccBwMAAEAAAAAAAAAAAAAAAAAAAAAAAAAAAAAAAAAAAAAAAAGgIAAAAACAOggEICCAAABAAIAACQCAAAAAAAAAAAAAAAAgAAAAIBAAACAAAEAAAAAAGAQAAAAAAAAAAAAAAAAAAAAAAAAAAAAAAAAA==
> <PUBCHEM_IUPAC_OPENEYE_NAME>
1-chlorohexyl acetate
> <PUBCHEM_IUPAC_CAS_NAME>
acetic acid 1-chlorohexyl ester
> <PUBCHEM_IUPAC_NAME_MARKUP>
1-chlorohexyl acetate
> <PUBCHEM_IUPAC_NAME>
1-chlorohexyl acetate
> <PUBCHEM_IUPAC_SYSTEMATIC_NAME>
1-chloranylhexyl ethanoate
> <PUBCHEM_IUPAC_TRADITIONAL_NAME>
acetic acid 1-chlorohexyl ester
> <PUBCHEM_IUPAC_INCHI>
InChI=1S/C8H15ClO2/c1-3-4-5-6-8(9)11-7(2)10/h8H,3-6H2,1-2H3
> <PUBCHEM_IUPAC_INCHIKEY>
OLRVZJLTENHULQ-UHFFFAOYSA-N
> <PUBCHEM_XLOGP3_AA>
3.2
> <PUBCHEM_EXACT_MASS>
178.0760574
> <PUBCHEM_MOLECULAR_FORMULA>
C8H15ClO2
> <PUBCHEM_MOLECULAR_WEIGHT>
178.65
> <PUBCHEM_OPENEYE_CAN_SMILES>
CCCCCC(OC(=O)C)Cl
> <PUBCHEM_OPENEYE_ISO_SMILES>
CCCCCC(OC(=O)C)Cl
> <PUBCHEM_CACTVS_TPSA>
26.3
> <PUBCHEM_MONOISOTOPIC_WEIGHT>
178.0760574
> <PUBCHEM_TOTAL_CHARGE>
0
> <PUBCHEM_HEAVY_ATOM_COUNT>
11
> <PUBCHEM_ATOM_DEF_STEREO_COUNT>
0
> <PUBCHEM_ATOM_UDEF_STEREO_COUNT>
1
> <PUBCHEM_BOND_DEF_STEREO_COUNT>
0
> <PUBCHEM_BOND_UDEF_STEREO_COUNT>
0
> <PUBCHEM_ISOTOPIC_ATOM_COUNT>
0
> <PUBCHEM_COMPONENT_COUNT>
1
> <PUBCHEM_CACTVS_TAUTO_COUNT>
-1
> <PUBCHEM_COORDINATE_TYPE>
1
5
255
> <PUBCHEM_BONDANNOTATIONS>
8  1  3
$$$$
