527855
  -OEChem-10302200292D
 19 19  0     1  0  0  0  0  0999 V2000
    4.2320   -1.1830    0.0000 O   0  0  0  0  0  0  0  0  0  0  0  0
    3.7320   -0.3170    0.0000 C   0  0  3  0  0  0  0  0  0  0  0  0
    4.7320   -0.3170    0.0000 C   0  0  3  0  0  0  0  0  0  0  0  0
    2.8660    0.1830    0.0000 C   0  0  0  0  0  0  0  0  0  0  0  0
    5.5981    0.1830    0.0000 C   0  0  0  0  0  0  0  0  0  0  0  0
    2.0000   -0.3170    0.0000 C   0  0  0  0  0  0  0  0  0  0  0  0
    2.8660    1.1830    0.0000 C   0  0  0  0  0  0  0  0  0  0  0  0
    3.1310   -0.9180    0.0000 H   0  0  0  0  0  0  0  0  0  0  0  0
    5.3331   -0.9180    0.0000 H   0  0  0  0  0  0  0  0  0  0  0  0
    2.8660   -0.4370    0.0000 H   0  0  0  0  0  0  0  0  0  0  0  0
    5.9081   -0.3539    0.0000 H   0  0  0  0  0  0  0  0  0  0  0  0
    6.1350    0.4930    0.0000 H   0  0  0  0  0  0  0  0  0  0  0  0
    5.2881    0.7199    0.0000 H   0  0  0  0  0  0  0  0  0  0  0  0
    1.6900    0.2199    0.0000 H   0  0  0  0  0  0  0  0  0  0  0  0
    1.4631   -0.6270    0.0000 H   0  0  0  0  0  0  0  0  0  0  0  0
    2.3100   -0.8539    0.0000 H   0  0  0  0  0  0  0  0  0  0  0  0
    3.4860    1.1830    0.0000 H   0  0  0  0  0  0  0  0  0  0  0  0
    2.8660    1.8030    0.0000 H   0  0  0  0  0  0  0  0  0  0  0  0
    2.2460    1.1830    0.0000 H   0  0  0  0  0  0  0  0  0  0  0  0
  1  2  1  0  0  0  0
  1  3  1  0  0  0  0
  2  3  1  0  0  0  0
  2  4  1  0  0  0  0
  2  8  1  0  0  0  0
  3  5  1  0  0  0  0
  3  9  1  0  0  0  0
  4  6  1  0  0  0  0
  4  7  1  0  0  0  0
  4 10  1  0  0  0  0
  5 11  1  0  0  0  0
  5 12  1  0  0  0  0
  5 13  1  0  0  0  0
  6 14  1  0  0  0  0
  6 15  1  0  0  0  0
  6 16  1  0  0  0  0
  7 17  1  0  0  0  0
  7 18  1  0  0  0  0
  7 19  1  0  0  0  0
M  END
> <PUBCHEM_COMPOUND_CID>
527855
> <PUBCHEM_COMPOUND_CANONICALIZED>
1
> <PUBCHEM_CACTVS_COMPLEXITY>
68.6
> <PUBCHEM_CACTVS_HBOND_ACCEPTOR>
1
> <PUBCHEM_CACTVS_HBOND_DONOR>
0
> <PUBCHEM_CACTVS_ROTATABLE_BOND>
1
> <PUBCHEM_CACTVS_SUBSKEYS>
AAADccBgIAAAAAAAAAAAAAAAEgAAAAAAAAAAAAAAAAAAAAAAAAAAGgAAAAAADRSggAICAAAABAAAAAAAAAAAAAAAAAAAAAAAAAAAAAIAAAACAAAEAAAAAAAAAAAMAAAAAAAAAAAAAAAAAAAAAAAAAAAAAA==
> <PUBCHEM_IUPAC_OPENEYE_NAME>
2-isopropyl-3-methyl-oxirane
> <PUBCHEM_IUPAC_CAS_NAME>
2-methyl-3-propan-2-yloxirane
> <PUBCHEM_IUPAC_NAME_MARKUP>
2-methyl-3-propan-2-yloxirane
> <PUBCHEM_IUPAC_NAME>
2-methyl-3-propan-2-yloxirane
> <PUBCHEM_IUPAC_SYSTEMATIC_NAME>
2-methyl-3-propan-2-yl-oxirane
> <PUBCHEM_IUPAC_TRADITIONAL_NAME>
2-isopropyl-3-methyl-oxirane
> <PUBCHEM_IUPAC_INCHI>
InChI=1S/C6H12O/c1-4(2)6-5(3)7-6/h4-6H,1-3H3
> <PUBCHEM_IUPAC_INCHIKEY>
AYTCGOOJNRZGBU-UHFFFAOYSA-N
> <PUBCHEM_XLOGP3_AA>
1.7
> <PUBCHEM_EXACT_MASS>
100.088815002
> <PUBCHEM_MOLECULAR_FORMULA>
C6H12O
> <PUBCHEM_MOLECULAR_WEIGHT>
100.16
> <PUBCHEM_OPENEYE_CAN_SMILES>
CC1C(O1)C(C)C
> <PUBCHEM_OPENEYE_ISO_SMILES>
CC1C(O1)C(C)C
> <PUBCHEM_CACTVS_TPSA>
12.5
> <PUBCHEM_MONOISOTOPIC_WEIGHT>
100.088815002
> <PUBCHEM_TOTAL_CHARGE>
0
> <PUBCHEM_HEAVY_ATOM_COUNT>
7
> <PUBCHEM_ATOM_DEF_STEREO_COUNT>
0
> <PUBCHEM_ATOM_UDEF_STEREO_COUNT>
2
> <PUBCHEM_BOND_DEF_STEREO_COUNT>
0
> <PUBCHEM_BOND_UDEF_STEREO_COUNT>
0
> <PUBCHEM_ISOTOPIC_ATOM_COUNT>
0
> <PUBCHEM_COMPONENT_COUNT>
1
> <PUBCHEM_CACTVS_TAUTO_COUNT>
1
> <PUBCHEM_COORDINATE_TYPE>
1
5
255
> <PUBCHEM_BONDANNOTATIONS>
2  8  3
3  9  3
$$$$
