527828
  -OEChem-10302200292D
 35 35  0     1  0  0  0  0  0999 V2000
    3.4013    1.2694    0.0000 O   0  0  0  0  0  0  0  0  0  0  0  0
    2.0000    0.2513    0.0000 O   0  0  0  0  0  0  0  0  0  0  0  0
    4.2634   -3.7146    0.0000 N   0  0  0  0  0  0  0  0  0  0  0  0
    4.5768   -0.3486    0.0000 N   0  0  0  0  0  0  0  0  0  0  0  0
    4.7634   -2.1757    0.0000 N   0  0  0  0  0  0  0  0  0  0  0  0
    3.5823   -0.4531    0.0000 C   0  0  3  0  0  0  0  0  0  0  0  0
    3.1756   -1.3667    0.0000 C   0  0  0  0  0  0  0  0  0  0  0  0
    3.7634   -2.1757    0.0000 C   0  0  0  0  0  0  0  0  0  0  0  0
    3.2202    2.9920    0.0000 C   0  0  0  0  0  0  0  0  0  0  0  0
    2.8135    2.0784    0.0000 C   0  0  0  0  0  0  0  0  0  0  0  0
    2.9945    0.3559    0.0000 C   0  0  0  0  0  0  0  0  0  0  0  0
    2.6324    3.8010    0.0000 C   0  0  0  0  0  0  0  0  0  0  0  0
    3.4543   -3.1268    0.0000 C   0  0  0  0  0  0  0  0  0  0  0  0
    5.0724   -3.1268    0.0000 C   0  0  0  0  0  0  0  0  0  0  0  0
    3.0392    4.7146    0.0000 C   0  0  0  0  0  0  0  0  0  0  0  0
    4.2634   -4.7146    0.0000 C   0  0  0  0  0  0  0  0  0  0  0  0
    3.8345    0.1133    0.0000 H   0  0  0  0  0  0  0  0  0  0  0  0
    2.6616   -1.0200    0.0000 H   0  0  0  0  0  0  0  0  0  0  0  0
    2.7449   -1.8127    0.0000 H   0  0  0  0  0  0  0  0  0  0  0  0
    3.7342    2.6453    0.0000 H   0  0  0  0  0  0  0  0  0  0  0  0
    3.6509    3.4380    0.0000 H   0  0  0  0  0  0  0  0  0  0  0  0
    2.2995    2.4251    0.0000 H   0  0  0  0  0  0  0  0  0  0  0  0
    2.3828    1.6324    0.0000 H   0  0  0  0  0  0  0  0  0  0  0  0
    2.1184    4.1477    0.0000 H   0  0  0  0  0  0  0  0  0  0  0  0
    2.2017    3.3550    0.0000 H   0  0  0  0  0  0  0  0  0  0  0  0
    2.8647   -3.3184    0.0000 H   0  0  0  0  0  0  0  0  0  0  0  0
    4.8290    0.2178    0.0000 H   0  0  0  0  0  0  0  0  0  0  0  0
    4.9413   -0.8502    0.0000 H   0  0  0  0  0  0  0  0  0  0  0  0
    5.6620   -3.3184    0.0000 H   0  0  0  0  0  0  0  0  0  0  0  0
    3.6056    4.4624    0.0000 H   0  0  0  0  0  0  0  0  0  0  0  0
    3.2913    5.2809    0.0000 H   0  0  0  0  0  0  0  0  0  0  0  0
    2.4728    4.9667    0.0000 H   0  0  0  0  0  0  0  0  0  0  0  0
    3.6434   -4.7146    0.0000 H   0  0  0  0  0  0  0  0  0  0  0  0
    4.2634   -5.3346    0.0000 H   0  0  0  0  0  0  0  0  0  0  0  0
    4.8834   -4.7146    0.0000 H   0  0  0  0  0  0  0  0  0  0  0  0
  1 10  1  0  0  0  0
  1 11  1  0  0  0  0
  2 11  2  0  0  0  0
  3 13  1  0  0  0  0
  3 14  1  0  0  0  0
  3 16  1  0  0  0  0
  4  6  1  0  0  0  0
  4 27  1  0  0  0  0
  4 28  1  0  0  0  0
  5  8  1  0  0  0  0
  5 14  2  0  0  0  0
  6  7  1  0  0  0  0
  6 11  1  0  0  0  0
  6 17  1  0  0  0  0
  7  8  1  0  0  0  0
  7 18  1  0  0  0  0
  7 19  1  0  0  0  0
  8 13  2  0  0  0  0
  9 10  1  0  0  0  0
  9 12  1  0  0  0  0
  9 20  1  0  0  0  0
  9 21  1  0  0  0  0
 10 22  1  0  0  0  0
 10 23  1  0  0  0  0
 12 15  1  0  0  0  0
 12 24  1  0  0  0  0
 12 25  1  0  0  0  0
 13 26  1  0  0  0  0
 14 29  1  0  0  0  0
 15 30  1  0  0  0  0
 15 31  1  0  0  0  0
 15 32  1  0  0  0  0
 16 33  1  0  0  0  0
 16 34  1  0  0  0  0
 16 35  1  0  0  0  0
M  END
> <PUBCHEM_COMPOUND_CID>
527828
> <PUBCHEM_COMPOUND_CANONICALIZED>
1
> <PUBCHEM_CACTVS_COMPLEXITY>
223
> <PUBCHEM_CACTVS_HBOND_ACCEPTOR>
4
> <PUBCHEM_CACTVS_HBOND_DONOR>
1
> <PUBCHEM_CACTVS_ROTATABLE_BOND>
7
> <PUBCHEM_CACTVS_SUBSKEYS>
AAADceBzMAAAAAAAAAAAAAAAAAAAAWAAAAAAAAAAAAAAAAABgAAAHgAQAAAACCjhlgYvmBdMFACoART3bAAAgC0xEqABUIG4cAiCaBJA2QGXAAAMkAJAQCC8EQIAAAAAAAAAAAAAAAAAAAAAAAAAAAAAAA==
> <PUBCHEM_IUPAC_OPENEYE_NAME>
butyl 2-amino-3-(1-methylimidazol-4-yl)propanoate
> <PUBCHEM_IUPAC_CAS_NAME>
2-amino-3-(1-methyl-4-imidazolyl)propanoic acid butyl ester
> <PUBCHEM_IUPAC_NAME_MARKUP>
butyl 2-amino-3-(1-methylimidazol-4-yl)propanoate
> <PUBCHEM_IUPAC_NAME>
butyl 2-amino-3-(1-methylimidazol-4-yl)propanoate
> <PUBCHEM_IUPAC_SYSTEMATIC_NAME>
butyl 2-azanyl-3-(1-methylimidazol-4-yl)propanoate
> <PUBCHEM_IUPAC_TRADITIONAL_NAME>
2-amino-3-(1-methylimidazol-4-yl)propionic acid butyl ester
> <PUBCHEM_IUPAC_INCHI>
InChI=1S/C11H19N3O2/c1-3-4-5-16-11(15)10(12)6-9-7-14(2)8-13-9/h7-8,10H,3-6,12H2,1-2H3
> <PUBCHEM_IUPAC_INCHIKEY>
IOXBVOOVLMAXMO-UHFFFAOYSA-N
> <PUBCHEM_XLOGP3_AA>
0.6
> <PUBCHEM_EXACT_MASS>
225.147726857
> <PUBCHEM_MOLECULAR_FORMULA>
C11H19N3O2
> <PUBCHEM_MOLECULAR_WEIGHT>
225.29
> <PUBCHEM_OPENEYE_CAN_SMILES>
CCCCOC(=O)C(CC1=CN(C=N1)C)N
> <PUBCHEM_OPENEYE_ISO_SMILES>
CCCCOC(=O)C(CC1=CN(C=N1)C)N
> <PUBCHEM_CACTVS_TPSA>
70.1
> <PUBCHEM_MONOISOTOPIC_WEIGHT>
225.147726857
> <PUBCHEM_TOTAL_CHARGE>
0
> <PUBCHEM_HEAVY_ATOM_COUNT>
16
> <PUBCHEM_ATOM_DEF_STEREO_COUNT>
0
> <PUBCHEM_ATOM_UDEF_STEREO_COUNT>
1
> <PUBCHEM_BOND_DEF_STEREO_COUNT>
0
> <PUBCHEM_BOND_UDEF_STEREO_COUNT>
0
> <PUBCHEM_ISOTOPIC_ATOM_COUNT>
0
> <PUBCHEM_COMPONENT_COUNT>
1
> <PUBCHEM_CACTVS_TAUTO_COUNT>
-1
> <PUBCHEM_COORDINATE_TYPE>
1
5
255
> <PUBCHEM_BONDANNOTATIONS>
3  13  8
3  14  8
6  4  3
5  14  8
5  8  8
8  13  8
$$$$
