527838
  -OEChem-10302200292D
 33 33  0     1  0  0  0  0  0999 V2000
    2.3940   -0.2850    0.0000 F   0  0  0  0  0  0  0  0  0  0  0  0
    2.0280   -1.6510    0.0000 F   0  0  0  0  0  0  0  0  0  0  0  0
    3.3940   -2.0171    0.0000 F   0  0  0  0  0  0  0  0  0  0  0  0
    6.2633    1.2968    0.0000 O   0  0  0  0  0  0  0  0  0  0  0  0
    2.0000    0.6277    0.0000 O   0  0  0  0  0  0  0  0  0  0  0  0
    5.7281   -0.3504    0.0000 O   0  0  0  0  0  0  0  0  0  0  0  0
    4.6261   -1.1510    0.0000 O   0  0  0  0  0  0  0  0  0  0  0  0
    3.7601    0.3490    0.0000 N   0  0  0  0  0  0  0  0  0  0  0  0
    4.5691    0.9367    0.0000 C   0  0  3  0  0  0  0  0  0  0  0  0
    4.2601    1.8878    0.0000 C   0  0  0  0  0  0  0  0  0  0  0  0
    3.2601    1.8878    0.0000 C   0  0  0  0  0  0  0  0  0  0  0  0
    2.9511    0.9367    0.0000 C   0  0  0  0  0  0  0  0  0  0  0  0
    5.5202    0.6277    0.0000 C   0  0  0  0  0  0  0  0  0  0  0  0
    3.7601   -0.6510    0.0000 C   0  0  0  0  0  0  0  0  0  0  0  0
    7.2144    0.9878    0.0000 C   0  0  0  0  0  0  0  0  0  0  0  0
    7.9575    1.6570    0.0000 C   0  0  0  0  0  0  0  0  0  0  0  0
    8.9086    1.3480    0.0000 C   0  0  0  0  0  0  0  0  0  0  0  0
    2.8940   -1.1510    0.0000 C   0  0  0  0  0  0  0  0  0  0  0  0
    9.6517    2.0171    0.0000 C   0  0  0  0  0  0  0  0  0  0  0  0
    4.6661    0.3244    0.0000 H   0  0  0  0  0  0  0  0  0  0  0  0
    4.8665    2.0167    0.0000 H   0  0  0  0  0  0  0  0  0  0  0  0
    4.1953    2.5044    0.0000 H   0  0  0  0  0  0  0  0  0  0  0  0
    3.3249    2.5044    0.0000 H   0  0  0  0  0  0  0  0  0  0  0  0
    2.6536    2.0167    0.0000 H   0  0  0  0  0  0  0  0  0  0  0  0
    6.9233    0.4404    0.0000 H   0  0  0  0  0  0  0  0  0  0  0  0
    7.7029    0.6061    0.0000 H   0  0  0  0  0  0  0  0  0  0  0  0
    8.2486    2.2044    0.0000 H   0  0  0  0  0  0  0  0  0  0  0  0
    7.4689    2.0387    0.0000 H   0  0  0  0  0  0  0  0  0  0  0  0
    8.6175    0.8005    0.0000 H   0  0  0  0  0  0  0  0  0  0  0  0
    9.3971    0.9662    0.0000 H   0  0  0  0  0  0  0  0  0  0  0  0
   10.0666    1.5563    0.0000 H   0  0  0  0  0  0  0  0  0  0  0  0
   10.1124    2.4319    0.0000 H   0  0  0  0  0  0  0  0  0  0  0  0
    9.2368    2.4778    0.0000 H   0  0  0  0  0  0  0  0  0  0  0  0
  1 18  1  0  0  0  0
  2 18  1  0  0  0  0
  3 18  1  0  0  0  0
  4 13  1  0  0  0  0
  4 15  1  0  0  0  0
  5 12  2  0  0  0  0
  6 13  2  0  0  0  0
  7 14  2  0  0  0  0
  8  9  1  0  0  0  0
  8 12  1  0  0  0  0
  8 14  1  0  0  0  0
  9 10  1  0  0  0  0
  9 13  1  0  0  0  0
  9 20  1  0  0  0  0
 10 11  1  0  0  0  0
 10 21  1  0  0  0  0
 10 22  1  0  0  0  0
 11 12  1  0  0  0  0
 11 23  1  0  0  0  0
 11 24  1  0  0  0  0
 14 18  1  0  0  0  0
 15 16  1  0  0  0  0
 15 25  1  0  0  0  0
 15 26  1  0  0  0  0
 16 17  1  0  0  0  0
 16 27  1  0  0  0  0
 16 28  1  0  0  0  0
 17 19  1  0  0  0  0
 17 29  1  0  0  0  0
 17 30  1  0  0  0  0
 19 31  1  0  0  0  0
 19 32  1  0  0  0  0
 19 33  1  0  0  0  0
M  END
> <PUBCHEM_COMPOUND_CID>
527838
> <PUBCHEM_COMPOUND_CANONICALIZED>
1
> <PUBCHEM_CACTVS_COMPLEXITY>
381
> <PUBCHEM_CACTVS_HBOND_ACCEPTOR>
7
> <PUBCHEM_CACTVS_HBOND_DONOR>
0
> <PUBCHEM_CACTVS_ROTATABLE_BOND>
5
> <PUBCHEM_CACTVS_SUBSKEYS>
AAADccByOYAAAAAAAAAAAAAAAAAAAWAAAAAAAAAAAAAAAAAAAAAAHwAAAAAACCjhgBYCCAMABAAIAAGQGAAAAAAAAAAAAAGIAAACABIAgCAHAAAEBiCQAACcFwIAAAAAAAAAAAAAAAAAAAAAAAAAAAAAAA==
> <PUBCHEM_IUPAC_OPENEYE_NAME>
butyl 5-oxo-1-(2,2,2-trifluoroacetyl)pyrrolidine-2-carboxylate
> <PUBCHEM_IUPAC_CAS_NAME>
5-oxo-1-(2,2,2-trifluoro-1-oxoethyl)-2-pyrrolidinecarboxylic acid butyl ester
> <PUBCHEM_IUPAC_NAME_MARKUP>
butyl 5-oxo-1-(2,2,2-trifluoroacetyl)pyrrolidine-2-carboxylate
> <PUBCHEM_IUPAC_NAME>
butyl 5-oxo-1-(2,2,2-trifluoroacetyl)pyrrolidine-2-carboxylate
> <PUBCHEM_IUPAC_SYSTEMATIC_NAME>
butyl 5-oxidanylidene-1-[2,2,2-tris(fluoranyl)ethanoyl]pyrrolidine-2-carboxylate
> <PUBCHEM_IUPAC_TRADITIONAL_NAME>
5-keto-1-(2,2,2-trifluoroacetyl)pyrrolidine-2-carboxylic acid butyl ester
> <PUBCHEM_IUPAC_INCHI>
InChI=1S/C11H14F3NO4/c1-2-3-6-19-9(17)7-4-5-8(16)15(7)10(18)11(12,13)14/h7H,2-6H2,1H3
> <PUBCHEM_IUPAC_INCHIKEY>
ZEXNADZGHOHCRS-UHFFFAOYSA-N
> <PUBCHEM_XLOGP3_AA>
1.9
> <PUBCHEM_EXACT_MASS>
281.08749241
> <PUBCHEM_MOLECULAR_FORMULA>
C11H14F3NO4
> <PUBCHEM_MOLECULAR_WEIGHT>
281.23
> <PUBCHEM_OPENEYE_CAN_SMILES>
CCCCOC(=O)C1CCC(=O)N1C(=O)C(F)(F)F
> <PUBCHEM_OPENEYE_ISO_SMILES>
CCCCOC(=O)C1CCC(=O)N1C(=O)C(F)(F)F
> <PUBCHEM_CACTVS_TPSA>
63.7
> <PUBCHEM_MONOISOTOPIC_WEIGHT>
281.08749241
> <PUBCHEM_TOTAL_CHARGE>
0
> <PUBCHEM_HEAVY_ATOM_COUNT>
19
> <PUBCHEM_ATOM_DEF_STEREO_COUNT>
0
> <PUBCHEM_ATOM_UDEF_STEREO_COUNT>
1
> <PUBCHEM_BOND_DEF_STEREO_COUNT>
0
> <PUBCHEM_BOND_UDEF_STEREO_COUNT>
0
> <PUBCHEM_ISOTOPIC_ATOM_COUNT>
0
> <PUBCHEM_COMPONENT_COUNT>
1
> <PUBCHEM_CACTVS_TAUTO_COUNT>
-1
> <PUBCHEM_COORDINATE_TYPE>
1
5
255
> <PUBCHEM_BONDANNOTATIONS>
9  13  3
$$$$
