527977
  -OEChem-10302200292D
 28 28  0     1  0  0  0  0  0999 V2000
    7.1962   -2.2500    0.0000 Cl  0  0  0  0  0  0  0  0  0  0  0  0
    6.3301    1.2500    0.0000 O   0  0  0  0  0  0  0  0  0  0  0  0
    2.8660   -0.7500    0.0000 O   0  0  0  0  0  0  0  0  0  0  0  0
    4.5981    1.2500    0.0000 O   0  0  0  0  0  0  0  0  0  0  0  0
    3.7320    0.7500    0.0000 O   0  0  0  0  0  0  0  0  0  0  0  0
    5.4641   -0.2500    0.0000 C   0  0  3  0  0  0  0  0  0  0  0  0
    4.5981   -0.7500    0.0000 C   0  0  3  0  0  0  0  0  0  0  0  0
    6.3301   -0.7500    0.0000 C   0  0  0  0  0  0  0  0  0  0  0  0
    4.5981   -1.7500    0.0000 C   0  0  0  0  0  0  0  0  0  0  0  0
    6.3301   -1.7500    0.0000 C   0  0  0  0  0  0  0  0  0  0  0  0
    5.4641   -2.2500    0.0000 C   0  0  0  0  0  0  0  0  0  0  0  0
    5.4641    0.7500    0.0000 C   0  0  0  0  0  0  0  0  0  0  0  0
    3.7320   -0.2500    0.0000 C   0  0  0  0  0  0  0  0  0  0  0  0
    6.3301    2.2500    0.0000 C   0  0  0  0  0  0  0  0  0  0  0  0
    2.0000   -0.2500    0.0000 C   0  0  0  0  0  0  0  0  0  0  0  0
    6.0010    0.0600    0.0000 H   0  0  0  0  0  0  0  0  0  0  0  0
    4.5981   -0.1300    0.0000 H   0  0  0  0  0  0  0  0  0  0  0  0
    6.9407   -0.8577    0.0000 H   0  0  0  0  0  0  0  0  0  0  0  0
    6.5422   -0.1674    0.0000 H   0  0  0  0  0  0  0  0  0  0  0  0
    3.9875   -1.6423    0.0000 H   0  0  0  0  0  0  0  0  0  0  0  0
    4.3860   -2.3326    0.0000 H   0  0  0  0  0  0  0  0  0  0  0  0
    5.4641   -2.8700    0.0000 H   0  0  0  0  0  0  0  0  0  0  0  0
    6.9501    2.2500    0.0000 H   0  0  0  0  0  0  0  0  0  0  0  0
    6.3301    2.8700    0.0000 H   0  0  0  0  0  0  0  0  0  0  0  0
    5.7101    2.2500    0.0000 H   0  0  0  0  0  0  0  0  0  0  0  0
    2.3100    0.2869    0.0000 H   0  0  0  0  0  0  0  0  0  0  0  0
    1.4631    0.0600    0.0000 H   0  0  0  0  0  0  0  0  0  0  0  0
    1.6900   -0.7869    0.0000 H   0  0  0  0  0  0  0  0  0  0  0  0
  1 10  1  0  0  0  0
  2 12  1  0  0  0  0
  2 14  1  0  0  0  0
  3 13  1  0  0  0  0
  3 15  1  0  0  0  0
  4 12  2  0  0  0  0
  5 13  2  0  0  0  0
  6  7  1  0  0  0  0
  6  8  1  0  0  0  0
  6 12  1  0  0  0  0
  6 16  1  0  0  0  0
  7  9  1  0  0  0  0
  7 13  1  0  0  0  0
  7 17  1  0  0  0  0
  8 10  1  0  0  0  0
  8 18  1  0  0  0  0
  8 19  1  0  0  0  0
  9 11  1  0  0  0  0
  9 20  1  0  0  0  0
  9 21  1  0  0  0  0
 10 11  2  0  0  0  0
 11 22  1  0  0  0  0
 14 23  1  0  0  0  0
 14 24  1  0  0  0  0
 14 25  1  0  0  0  0
 15 26  1  0  0  0  0
 15 27  1  0  0  0  0
 15 28  1  0  0  0  0
M  END
> <PUBCHEM_COMPOUND_CID>
527977
> <PUBCHEM_COMPOUND_CANONICALIZED>
1
> <PUBCHEM_CACTVS_COMPLEXITY>
298
> <PUBCHEM_CACTVS_HBOND_ACCEPTOR>
4
> <PUBCHEM_CACTVS_HBOND_DONOR>
0
> <PUBCHEM_CACTVS_ROTATABLE_BOND>
4
> <PUBCHEM_CACTVS_SUBSKEYS>
AAADccBwOAAEAAAAAAAAAAAAAAAAAAAAAAAgAAAAAAAAAAAAAAAAGgIAAAAADQKAgAICCAAABACIACDSCAAAAAAgAAAACAEAAggAABIBAQAAAAAEgAAIAAPLAAAOgAAAAAAAAAAAAAAAAAAAAAAAAAAAAA==
> <PUBCHEM_IUPAC_OPENEYE_NAME>
dimethyl 4-chlorocyclohex-4-ene-1,2-dicarboxylate
> <PUBCHEM_IUPAC_CAS_NAME>
4-chlorocyclohex-4-ene-1,2-dicarboxylic acid dimethyl ester
> <PUBCHEM_IUPAC_NAME_MARKUP>
dimethyl 4-chlorocyclohex-4-ene-1,2-dicarboxylate
> <PUBCHEM_IUPAC_NAME>
dimethyl 4-chlorocyclohex-4-ene-1,2-dicarboxylate
> <PUBCHEM_IUPAC_SYSTEMATIC_NAME>
dimethyl 4-chloranylcyclohex-4-ene-1,2-dicarboxylate
> <PUBCHEM_IUPAC_TRADITIONAL_NAME>
4-chlorocyclohex-4-ene-1,2-dicarboxylic acid dimethyl ester
> <PUBCHEM_IUPAC_INCHI>
InChI=1S/C10H13ClO4/c1-14-9(12)7-4-3-6(11)5-8(7)10(13)15-2/h3,7-8H,4-5H2,1-2H3
> <PUBCHEM_IUPAC_INCHIKEY>
FIYAIUGEFLHXEI-UHFFFAOYSA-N
> <PUBCHEM_XLOGP3_AA>
1.4
> <PUBCHEM_EXACT_MASS>
232.0502366
> <PUBCHEM_MOLECULAR_FORMULA>
C10H13ClO4
> <PUBCHEM_MOLECULAR_WEIGHT>
232.66
> <PUBCHEM_OPENEYE_CAN_SMILES>
COC(=O)C1CC=C(CC1C(=O)OC)Cl
> <PUBCHEM_OPENEYE_ISO_SMILES>
COC(=O)C1CC=C(CC1C(=O)OC)Cl
> <PUBCHEM_CACTVS_TPSA>
52.6
> <PUBCHEM_MONOISOTOPIC_WEIGHT>
232.0502366
> <PUBCHEM_TOTAL_CHARGE>
0
> <PUBCHEM_HEAVY_ATOM_COUNT>
15
> <PUBCHEM_ATOM_DEF_STEREO_COUNT>
0
> <PUBCHEM_ATOM_UDEF_STEREO_COUNT>
2
> <PUBCHEM_BOND_DEF_STEREO_COUNT>
0
> <PUBCHEM_BOND_UDEF_STEREO_COUNT>
0
> <PUBCHEM_ISOTOPIC_ATOM_COUNT>
0
> <PUBCHEM_COMPONENT_COUNT>
1
> <PUBCHEM_CACTVS_TAUTO_COUNT>
-1
> <PUBCHEM_COORDINATE_TYPE>
1
5
255
> <PUBCHEM_BONDANNOTATIONS>
6  12  3
7  13  3
$$$$
