528001
  -OEChem-10302200292D
 34 34  0     1  0  0  0  0  0999 V2000
    5.4641    0.7500    0.0000 O   0  0  0  0  0  0  0  0  0  0  0  0
    3.7320    0.7500    0.0000 O   0  0  0  0  0  0  0  0  0  0  0  0
    2.8660   -3.7500    0.0000 O   0  5  0  0  0  0  0  0  0  0  0  0
    6.3301   -3.7500    0.0000 O   0  5  0  0  0  0  0  0  0  0  0  0
    2.0000   -2.2500    0.0000 O   0  0  0  0  0  0  0  0  0  0  0  0
    7.1962   -2.2500    0.0000 O   0  0  0  0  0  0  0  0  0  0  0  0
    2.8660   -2.7500    0.0000 N   0  3  0  0  0  0  0  0  0  0  0  0
    6.3301   -2.7500    0.0000 N   0  3  0  0  0  0  0  0  0  0  0  0
    5.4641    1.7500    0.0000 C   0  0  3  0  0  0  0  0  0  0  0  0
    6.3301    2.2500    0.0000 C   0  0  0  0  0  0  0  0  0  0  0  0
    6.3301    3.2500    0.0000 C   0  0  0  0  0  0  0  0  0  0  0  0
    4.5981    2.2500    0.0000 C   0  0  0  0  0  0  0  0  0  0  0  0
    7.1962    3.7500    0.0000 C   0  0  0  0  0  0  0  0  0  0  0  0
    4.5981   -0.7500    0.0000 C   0  0  0  0  0  0  0  0  0  0  0  0
    4.5981    0.2500    0.0000 C   0  0  0  0  0  0  0  0  0  0  0  0
    5.4641   -1.2500    0.0000 C   0  0  0  0  0  0  0  0  0  0  0  0
    3.7320   -1.2500    0.0000 C   0  0  0  0  0  0  0  0  0  0  0  0
    3.7320   -2.2500    0.0000 C   0  0  0  0  0  0  0  0  0  0  0  0
    5.4641   -2.2500    0.0000 C   0  0  0  0  0  0  0  0  0  0  0  0
    4.5981   -2.7500    0.0000 C   0  0  0  0  0  0  0  0  0  0  0  0
    6.2002    1.3250    0.0000 H   0  0  0  0  0  0  0  0  0  0  0  0
    6.5422    1.6674    0.0000 H   0  0  0  0  0  0  0  0  0  0  0  0
    6.9407    2.3577    0.0000 H   0  0  0  0  0  0  0  0  0  0  0  0
    6.1181    3.8326    0.0000 H   0  0  0  0  0  0  0  0  0  0  0  0
    5.7196    3.1423    0.0000 H   0  0  0  0  0  0  0  0  0  0  0  0
    4.9081    2.7869    0.0000 H   0  0  0  0  0  0  0  0  0  0  0  0
    4.0611    2.5600    0.0000 H   0  0  0  0  0  0  0  0  0  0  0  0
    4.2881    1.7131    0.0000 H   0  0  0  0  0  0  0  0  0  0  0  0
    7.5062    3.2131    0.0000 H   0  0  0  0  0  0  0  0  0  0  0  0
    7.7331    4.0600    0.0000 H   0  0  0  0  0  0  0  0  0  0  0  0
    6.8862    4.2869    0.0000 H   0  0  0  0  0  0  0  0  0  0  0  0
    6.0010   -0.9400    0.0000 H   0  0  0  0  0  0  0  0  0  0  0  0
    3.1951   -0.9400    0.0000 H   0  0  0  0  0  0  0  0  0  0  0  0
    4.5981   -3.3700    0.0000 H   0  0  0  0  0  0  0  0  0  0  0  0
  1  9  1  0  0  0  0
  1 15  1  0  0  0  0
  2 15  2  0  0  0  0
  3  7  1  0  0  0  0
  4  8  1  0  0  0  0
  5  7  2  0  0  0  0
  6  8  2  0  0  0  0
  7 18  1  0  0  0  0
  8 19  1  0  0  0  0
  9 10  1  0  0  0  0
  9 12  1  0  0  0  0
  9 21  1  0  0  0  0
 10 11  1  0  0  0  0
 10 22  1  0  0  0  0
 10 23  1  0  0  0  0
 11 13  1  0  0  0  0
 11 24  1  0  0  0  0
 11 25  1  0  0  0  0
 12 26  1  0  0  0  0
 12 27  1  0  0  0  0
 12 28  1  0  0  0  0
 13 29  1  0  0  0  0
 13 30  1  0  0  0  0
 13 31  1  0  0  0  0
 14 15  1  0  0  0  0
 14 16  2  0  0  0  0
 14 17  1  0  0  0  0
 16 19  1  0  0  0  0
 16 32  1  0  0  0  0
 17 18  2  0  0  0  0
 17 33  1  0  0  0  0
 18 20  1  0  0  0  0
 19 20  2  0  0  0  0
 20 34  1  0  0  0  0
M  CHG  4   3  -1   4  -1   7   1   8   1
M  END
> <PUBCHEM_COMPOUND_CID>
528001
> <PUBCHEM_COMPOUND_CANONICALIZED>
1
> <PUBCHEM_CACTVS_COMPLEXITY>
353
> <PUBCHEM_CACTVS_HBOND_ACCEPTOR>
6
> <PUBCHEM_CACTVS_HBOND_DONOR>
0
> <PUBCHEM_CACTVS_ROTATABLE_BOND>
5
> <PUBCHEM_CACTVS_SUBSKEYS>
AAADccBzOAAAAAAAAAAAAAAAAAAAAAAAAAAwAAAAAAAAAAABAAAAHgAEAAAADByhmAIyyIAQRACJAiTSSwCCAAAkAgAgiAEAbMoIJjKA9dmCMQBkwAEI6Ye8yCCOAAAAQAQAAAAAAACACAAAAAAAAAAAAA==
> <PUBCHEM_IUPAC_OPENEYE_NAME>
1-methylbutyl 3,5-dinitrobenzoate
> <PUBCHEM_IUPAC_CAS_NAME>
3,5-dinitrobenzoic acid pentan-2-yl ester
> <PUBCHEM_IUPAC_NAME_MARKUP>
pentan-2-yl 3,5-dinitrobenzoate
> <PUBCHEM_IUPAC_NAME>
pentan-2-yl 3,5-dinitrobenzoate
> <PUBCHEM_IUPAC_SYSTEMATIC_NAME>
pentan-2-yl 3,5-dinitrobenzoate
> <PUBCHEM_IUPAC_TRADITIONAL_NAME>
3,5-dinitrobenzoic acid 1-methylbutyl ester
> <PUBCHEM_IUPAC_INCHI>
InChI=1S/C12H14N2O6/c1-3-4-8(2)20-12(15)9-5-10(13(16)17)7-11(6-9)14(18)19/h5-8H,3-4H2,1-2H3
> <PUBCHEM_IUPAC_INCHIKEY>
UJIRDPTTWKRINN-UHFFFAOYSA-N
> <PUBCHEM_XLOGP3_AA>
3.1
> <PUBCHEM_EXACT_MASS>
282.08518617
> <PUBCHEM_MOLECULAR_FORMULA>
C12H14N2O6
> <PUBCHEM_MOLECULAR_WEIGHT>
282.25
> <PUBCHEM_OPENEYE_CAN_SMILES>
CCCC(C)OC(=O)C1=CC(=CC(=C1)[N+](=O)[O-])[N+](=O)[O-]
> <PUBCHEM_OPENEYE_ISO_SMILES>
CCCC(C)OC(=O)C1=CC(=CC(=C1)[N+](=O)[O-])[N+](=O)[O-]
> <PUBCHEM_CACTVS_TPSA>
118
> <PUBCHEM_MONOISOTOPIC_WEIGHT>
282.08518617
> <PUBCHEM_TOTAL_CHARGE>
0
> <PUBCHEM_HEAVY_ATOM_COUNT>
20
> <PUBCHEM_ATOM_DEF_STEREO_COUNT>
0
> <PUBCHEM_ATOM_UDEF_STEREO_COUNT>
1
> <PUBCHEM_BOND_DEF_STEREO_COUNT>
0
> <PUBCHEM_BOND_UDEF_STEREO_COUNT>
0
> <PUBCHEM_ISOTOPIC_ATOM_COUNT>
0
> <PUBCHEM_COMPONENT_COUNT>
1
> <PUBCHEM_CACTVS_TAUTO_COUNT>
1
> <PUBCHEM_COORDINATE_TYPE>
1
5
255
> <PUBCHEM_BONDANNOTATIONS>
14  16  8
14  17  8
16  19  8
17  18  8
18  20  8
19  20  8
9  21  3
$$$$
