528068
  -OEChem-10302200292D
 61 60  0     1  0  0  0  0  0999 V2000
    8.0622    0.1830    0.0000 Si  0  0  0  0  0  0  0  0  0  0  0  0
    3.7320   -0.3170    0.0000 Si  0  0  0  0  0  0  0  0  0  0  0  0
    4.5981    0.1830    0.0000 O   0  0  0  0  0  0  0  0  0  0  0  0
    5.4641   -1.3170    0.0000 O   0  0  0  0  0  0  0  0  0  0  0  0
    7.1962   -0.3170    0.0000 N   0  0  0  0  0  0  0  0  0  0  0  0
    8.9282    0.6830    0.0000 C   0  0  0  0  0  0  0  0  0  0  0  0
    6.3301    0.1830    0.0000 C   0  0  3  0  0  0  0  0  0  0  0  0
    2.8660   -0.8170    0.0000 C   0  0  0  0  0  0  0  0  0  0  0  0
    7.5622    1.0490    0.0000 C   0  0  0  0  0  0  0  0  0  0  0  0
    8.5622   -0.6830    0.0000 C   0  0  0  0  0  0  0  0  0  0  0  0
    9.7942    1.1830    0.0000 C   0  0  0  0  0  0  0  0  0  0  0  0
    8.4282    1.5490    0.0000 C   0  0  0  0  0  0  0  0  0  0  0  0
    9.4282   -0.1830    0.0000 C   0  0  0  0  0  0  0  0  0  0  0  0
    6.3301    1.1830    0.0000 C   0  0  0  0  0  0  0  0  0  0  0  0
    5.4641   -0.3170    0.0000 C   0  0  0  0  0  0  0  0  0  0  0  0
    3.2320    0.5490    0.0000 C   0  0  0  0  0  0  0  0  0  0  0  0
    4.2320   -1.1830    0.0000 C   0  0  0  0  0  0  0  0  0  0  0  0
    2.0000   -1.3170    0.0000 C   0  0  0  0  0  0  0  0  0  0  0  0
    2.3660    0.0490    0.0000 C   0  0  0  0  0  0  0  0  0  0  0  0
    3.3660   -1.6830    0.0000 C   0  0  0  0  0  0  0  0  0  0  0  0
    5.4641    1.6830    0.0000 C   0  0  0  0  0  0  0  0  0  0  0  0
    7.1962    1.6830    0.0000 C   0  0  0  0  0  0  0  0  0  0  0  0
    7.1962   -0.9370    0.0000 H   0  0  0  0  0  0  0  0  0  0  0  0
    6.3301   -0.4370    0.0000 H   0  0  0  0  0  0  0  0  0  0  0  0
    8.0991    1.3590    0.0000 H   0  0  0  0  0  0  0  0  0  0  0  0
    7.2522    1.5860    0.0000 H   0  0  0  0  0  0  0  0  0  0  0  0
    7.0252    0.7390    0.0000 H   0  0  0  0  0  0  0  0  0  0  0  0
    8.0252   -0.9930    0.0000 H   0  0  0  0  0  0  0  0  0  0  0  0
    8.8722   -1.2200    0.0000 H   0  0  0  0  0  0  0  0  0  0  0  0
    9.0991   -0.3730    0.0000 H   0  0  0  0  0  0  0  0  0  0  0  0
   10.1042    0.6461    0.0000 H   0  0  0  0  0  0  0  0  0  0  0  0
   10.3312    1.4930    0.0000 H   0  0  0  0  0  0  0  0  0  0  0  0
    9.4842    1.7200    0.0000 H   0  0  0  0  0  0  0  0  0  0  0  0
    8.9651    1.8590    0.0000 H   0  0  0  0  0  0  0  0  0  0  0  0
    8.1182    2.0860    0.0000 H   0  0  0  0  0  0  0  0  0  0  0  0
    7.8913    1.2390    0.0000 H   0  0  0  0  0  0  0  0  0  0  0  0
    8.8913   -0.4930    0.0000 H   0  0  0  0  0  0  0  0  0  0  0  0
    9.7382   -0.7199    0.0000 H   0  0  0  0  0  0  0  0  0  0  0  0
    9.9651    0.1270    0.0000 H   0  0  0  0  0  0  0  0  0  0  0  0
    6.8671    0.8730    0.0000 H   0  0  0  0  0  0  0  0  0  0  0  0
    3.7690    0.8590    0.0000 H   0  0  0  0  0  0  0  0  0  0  0  0
    2.9220    1.0860    0.0000 H   0  0  0  0  0  0  0  0  0  0  0  0
    2.6951    0.2390    0.0000 H   0  0  0  0  0  0  0  0  0  0  0  0
    3.6951   -1.4930    0.0000 H   0  0  0  0  0  0  0  0  0  0  0  0
    4.5420   -1.7200    0.0000 H   0  0  0  0  0  0  0  0  0  0  0  0
    4.7690   -0.8730    0.0000 H   0  0  0  0  0  0  0  0  0  0  0  0
    1.6900   -0.7801    0.0000 H   0  0  0  0  0  0  0  0  0  0  0  0
    1.4631   -1.6270    0.0000 H   0  0  0  0  0  0  0  0  0  0  0  0
    2.3100   -1.8539    0.0000 H   0  0  0  0  0  0  0  0  0  0  0  0
    2.9030    0.3590    0.0000 H   0  0  0  0  0  0  0  0  0  0  0  0
    2.0560    0.5860    0.0000 H   0  0  0  0  0  0  0  0  0  0  0  0
    1.8291   -0.2610    0.0000 H   0  0  0  0  0  0  0  0  0  0  0  0
    2.8291   -1.9930    0.0000 H   0  0  0  0  0  0  0  0  0  0  0  0
    3.6760   -2.2200    0.0000 H   0  0  0  0  0  0  0  0  0  0  0  0
    3.9030   -1.3730    0.0000 H   0  0  0  0  0  0  0  0  0  0  0  0
    5.7741    2.2200    0.0000 H   0  0  0  0  0  0  0  0  0  0  0  0
    4.9272    1.9930    0.0000 H   0  0  0  0  0  0  0  0  0  0  0  0
    5.1541    1.1461    0.0000 H   0  0  0  0  0  0  0  0  0  0  0  0
    7.5062    1.1461    0.0000 H   0  0  0  0  0  0  0  0  0  0  0  0
    7.7331    1.9930    0.0000 H   0  0  0  0  0  0  0  0  0  0  0  0
    6.8862    2.2200    0.0000 H   0  0  0  0  0  0  0  0  0  0  0  0
  1  5  1  0  0  0  0
  1  6  1  0  0  0  0
  1  9  1  0  0  0  0
  1 10  1  0  0  0  0
  2  3  1  0  0  0  0
  2  8  1  0  0  0  0
  2 16  1  0  0  0  0
  2 17  1  0  0  0  0
  3 15  1  0  0  0  0
  4 15  2  0  0  0  0
  5  7  1  0  0  0  0
  5 23  1  0  0  0  0
  6 11  1  0  0  0  0
  6 12  1  0  0  0  0
  6 13  1  0  0  0  0
  7 14  1  0  0  0  0
  7 15  1  0  0  0  0
  7 24  1  0  0  0  0
  8 18  1  0  0  0  0
  8 19  1  0  0  0  0
  8 20  1  0  0  0  0
  9 25  1  0  0  0  0
  9 26  1  0  0  0  0
  9 27  1  0  0  0  0
 10 28  1  0  0  0  0
 10 29  1  0  0  0  0
 10 30  1  0  0  0  0
 11 31  1  0  0  0  0
 11 32  1  0  0  0  0
 11 33  1  0  0  0  0
 12 34  1  0  0  0  0
 12 35  1  0  0  0  0
 12 36  1  0  0  0  0
 13 37  1  0  0  0  0
 13 38  1  0  0  0  0
 13 39  1  0  0  0  0
 14 21  1  0  0  0  0
 14 22  1  0  0  0  0
 14 40  1  0  0  0  0
 16 41  1  0  0  0  0
 16 42  1  0  0  0  0
 16 43  1  0  0  0  0
 17 44  1  0  0  0  0
 17 45  1  0  0  0  0
 17 46  1  0  0  0  0
 18 47  1  0  0  0  0
 18 48  1  0  0  0  0
 18 49  1  0  0  0  0
 19 50  1  0  0  0  0
 19 51  1  0  0  0  0
 19 52  1  0  0  0  0
 20 53  1  0  0  0  0
 20 54  1  0  0  0  0
 20 55  1  0  0  0  0
 21 56  1  0  0  0  0
 21 57  1  0  0  0  0
 21 58  1  0  0  0  0
 22 59  1  0  0  0  0
 22 60  1  0  0  0  0
 22 61  1  0  0  0  0
M  END
> <PUBCHEM_COMPOUND_CID>
528068
> <PUBCHEM_COMPOUND_CANONICALIZED>
1
> <PUBCHEM_CACTVS_COMPLEXITY>
390
> <PUBCHEM_CACTVS_HBOND_ACCEPTOR>
3
> <PUBCHEM_CACTVS_HBOND_DONOR>
1
> <PUBCHEM_CACTVS_ROTATABLE_BOND>
8
> <PUBCHEM_CACTVS_SUBSKEYS>
AAADcfB6MAwAAAAAAAAAAAAAAAAAAAAAAAAAAAAAAAAAAAAAAAAAHhARAEAADSjBoARCCABAAAEIAACQCAAAAAAAAAAAAIGAAAACABAAAAAAAAAEEAAAAAAAAAAIAAAAAAAAAAAAAAAAAAAAAAAAAAAAAA==
> <PUBCHEM_IUPAC_OPENEYE_NAME>
[tert-butyl(dimethyl)silyl] 2-[[tert-butyl(dimethyl)silyl]amino]-3-methyl-butanoate
> <PUBCHEM_IUPAC_CAS_NAME>
2-[[tert-butyl(dimethyl)silyl]amino]-3-methylbutanoic acid [tert-butyl(dimethyl)silyl] ester
> <PUBCHEM_IUPAC_NAME_MARKUP>
[<I>tert</I>-butyl(dimethyl)silyl] 2-[[<I>tert</I>-butyl(dimethyl)silyl]amino]-3-methylbutanoate
> <PUBCHEM_IUPAC_NAME>
[tert-butyl(dimethyl)silyl] 2-[[tert-butyl(dimethyl)silyl]amino]-3-methylbutanoate
> <PUBCHEM_IUPAC_SYSTEMATIC_NAME>
[tert-butyl(dimethyl)silyl] 2-[[tert-butyl(dimethyl)silyl]amino]-3-methyl-butanoate
> <PUBCHEM_IUPAC_TRADITIONAL_NAME>
2-[[tert-butyl(dimethyl)silyl]amino]-3-methyl-butyric acid [tert-butyl(dimethyl)silyl] ester
> <PUBCHEM_IUPAC_INCHI>
InChI=1S/C17H39NO2Si2/c1-13(2)14(18-21(9,10)16(3,4)5)15(19)20-22(11,12)17(6,7)8/h13-14,18H,1-12H3
> <PUBCHEM_IUPAC_INCHIKEY>
KPMGOLUDVQVDCW-UHFFFAOYSA-N
> <PUBCHEM_EXACT_MASS>
345.25193256
> <PUBCHEM_MOLECULAR_FORMULA>
C17H39NO2Si2
> <PUBCHEM_MOLECULAR_WEIGHT>
345.7
> <PUBCHEM_OPENEYE_CAN_SMILES>
CC(C)C(C(=O)O[Si](C)(C)C(C)(C)C)N[Si](C)(C)C(C)(C)C
> <PUBCHEM_OPENEYE_ISO_SMILES>
CC(C)C(C(=O)O[Si](C)(C)C(C)(C)C)N[Si](C)(C)C(C)(C)C
> <PUBCHEM_CACTVS_TPSA>
38.3
> <PUBCHEM_MONOISOTOPIC_WEIGHT>
345.25193256
> <PUBCHEM_TOTAL_CHARGE>
0
> <PUBCHEM_HEAVY_ATOM_COUNT>
22
> <PUBCHEM_ATOM_DEF_STEREO_COUNT>
0
> <PUBCHEM_ATOM_UDEF_STEREO_COUNT>
1
> <PUBCHEM_BOND_DEF_STEREO_COUNT>
0
> <PUBCHEM_BOND_UDEF_STEREO_COUNT>
0
> <PUBCHEM_ISOTOPIC_ATOM_COUNT>
0
> <PUBCHEM_COMPONENT_COUNT>
1
> <PUBCHEM_CACTVS_TAUTO_COUNT>
-1
> <PUBCHEM_COORDINATE_TYPE>
1
5
255
> <PUBCHEM_BONDANNOTATIONS>
7  14  3
$$$$
