528063
  -OEChem-10302200292D
 65 65  0     1  0  0  0  0  0999 V2000
    4.5981    1.8170    0.0000 Si  0  0  0  0  0  0  0  0  0  0  0  0
    6.3301   -0.1830    0.0000 Si  0  0  0  0  0  0  0  0  0  0  0  0
    5.4641    0.3170    0.0000 O   0  0  0  0  0  0  0  0  0  0  0  0
    4.5981   -1.1830    0.0000 O   0  0  0  0  0  0  0  0  0  0  0  0
    3.7320    1.3170    0.0000 N   0  0  0  0  0  0  0  0  0  0  0  0
    5.4641    2.3170    0.0000 C   0  0  0  0  0  0  0  0  0  0  0  0
    7.1962   -0.6830    0.0000 C   0  0  0  0  0  0  0  0  0  0  0  0
    3.7320    0.3170    0.0000 C   0  0  3  0  0  0  0  0  0  0  0  0
    4.0981    2.6830    0.0000 C   0  0  0  0  0  0  0  0  0  0  0  0
    5.0981    0.9510    0.0000 C   0  0  0  0  0  0  0  0  0  0  0  0
    6.3301    2.8170    0.0000 C   0  0  0  0  0  0  0  0  0  0  0  0
    4.9641    3.1830    0.0000 C   0  0  0  0  0  0  0  0  0  0  0  0
    5.9641    1.4510    0.0000 C   0  0  0  0  0  0  0  0  0  0  0  0
    2.8660   -0.1830    0.0000 C   0  0  0  0  0  0  0  0  0  0  0  0
    4.5981   -0.1830    0.0000 C   0  0  0  0  0  0  0  0  0  0  0  0
    8.0622   -1.1830    0.0000 C   0  0  0  0  0  0  0  0  0  0  0  0
    7.6962    0.1830    0.0000 C   0  0  0  0  0  0  0  0  0  0  0  0
    6.6962   -1.5490    0.0000 C   0  0  0  0  0  0  0  0  0  0  0  0
    6.8301    0.6830    0.0000 C   0  0  0  0  0  0  0  0  0  0  0  0
    5.8301   -1.0490    0.0000 C   0  0  0  0  0  0  0  0  0  0  0  0
    2.8660   -1.1830    0.0000 C   0  0  0  0  0  0  0  0  0  0  0  0
    3.7320   -1.6830    0.0000 C   0  0  0  0  0  0  0  0  0  0  0  0
    2.0000   -1.6830    0.0000 C   0  0  0  0  0  0  0  0  0  0  0  0
    3.7320   -2.6830    0.0000 C   0  0  0  0  0  0  0  0  0  0  0  0
    2.0000   -2.6830    0.0000 C   0  0  0  0  0  0  0  0  0  0  0  0
    2.8660   -3.1830    0.0000 C   0  0  0  0  0  0  0  0  0  0  0  0
    3.1951    1.6270    0.0000 H   0  0  0  0  0  0  0  0  0  0  0  0
    4.2690    0.6270    0.0000 H   0  0  0  0  0  0  0  0  0  0  0  0
    4.6350    2.9930    0.0000 H   0  0  0  0  0  0  0  0  0  0  0  0
    3.7881    3.2200    0.0000 H   0  0  0  0  0  0  0  0  0  0  0  0
    3.5611    2.3730    0.0000 H   0  0  0  0  0  0  0  0  0  0  0  0
    4.5611    0.6410    0.0000 H   0  0  0  0  0  0  0  0  0  0  0  0
    5.4081    0.4140    0.0000 H   0  0  0  0  0  0  0  0  0  0  0  0
    5.6350    1.2610    0.0000 H   0  0  0  0  0  0  0  0  0  0  0  0
    6.6401    2.2800    0.0000 H   0  0  0  0  0  0  0  0  0  0  0  0
    6.8671    3.1270    0.0000 H   0  0  0  0  0  0  0  0  0  0  0  0
    6.0201    3.3539    0.0000 H   0  0  0  0  0  0  0  0  0  0  0  0
    5.5010    3.4930    0.0000 H   0  0  0  0  0  0  0  0  0  0  0  0
    4.6541    3.7200    0.0000 H   0  0  0  0  0  0  0  0  0  0  0  0
    4.4272    2.8730    0.0000 H   0  0  0  0  0  0  0  0  0  0  0  0
    5.4272    1.1410    0.0000 H   0  0  0  0  0  0  0  0  0  0  0  0
    6.2741    0.9140    0.0000 H   0  0  0  0  0  0  0  0  0  0  0  0
    6.5010    1.7610    0.0000 H   0  0  0  0  0  0  0  0  0  0  0  0
    2.6540    0.3996    0.0000 H   0  0  0  0  0  0  0  0  0  0  0  0
    2.2554   -0.2907    0.0000 H   0  0  0  0  0  0  0  0  0  0  0  0
    7.7522   -1.7200    0.0000 H   0  0  0  0  0  0  0  0  0  0  0  0
    8.5991   -1.4930    0.0000 H   0  0  0  0  0  0  0  0  0  0  0  0
    8.3722   -0.6461    0.0000 H   0  0  0  0  0  0  0  0  0  0  0  0
    8.2331   -0.1270    0.0000 H   0  0  0  0  0  0  0  0  0  0  0  0
    8.0062    0.7199    0.0000 H   0  0  0  0  0  0  0  0  0  0  0  0
    7.1592    0.4930    0.0000 H   0  0  0  0  0  0  0  0  0  0  0  0
    6.1592   -1.2390    0.0000 H   0  0  0  0  0  0  0  0  0  0  0  0
    6.3862   -2.0860    0.0000 H   0  0  0  0  0  0  0  0  0  0  0  0
    7.2331   -1.8590    0.0000 H   0  0  0  0  0  0  0  0  0  0  0  0
    7.3671    0.3730    0.0000 H   0  0  0  0  0  0  0  0  0  0  0  0
    7.1401    1.2200    0.0000 H   0  0  0  0  0  0  0  0  0  0  0  0
    6.2932    0.9930    0.0000 H   0  0  0  0  0  0  0  0  0  0  0  0
    5.2932   -0.7390    0.0000 H   0  0  0  0  0  0  0  0  0  0  0  0
    5.5201   -1.5860    0.0000 H   0  0  0  0  0  0  0  0  0  0  0  0
    6.3671   -1.3590    0.0000 H   0  0  0  0  0  0  0  0  0  0  0  0
    4.2690   -1.3730    0.0000 H   0  0  0  0  0  0  0  0  0  0  0  0
    1.4631   -1.3730    0.0000 H   0  0  0  0  0  0  0  0  0  0  0  0
    4.2690   -2.9930    0.0000 H   0  0  0  0  0  0  0  0  0  0  0  0
    1.4631   -2.9930    0.0000 H   0  0  0  0  0  0  0  0  0  0  0  0
    2.8660   -3.8030    0.0000 H   0  0  0  0  0  0  0  0  0  0  0  0
  1  5  1  0  0  0  0
  1  6  1  0  0  0  0
  1  9  1  0  0  0  0
  1 10  1  0  0  0  0
  2  3  1  0  0  0  0
  2  7  1  0  0  0  0
  2 19  1  0  0  0  0
  2 20  1  0  0  0  0
  3 15  1  0  0  0  0
  4 15  2  0  0  0  0
  5  8  1  0  0  0  0
  5 27  1  0  0  0  0
  6 11  1  0  0  0  0
  6 12  1  0  0  0  0
  6 13  1  0  0  0  0
  7 16  1  0  0  0  0
  7 17  1  0  0  0  0
  7 18  1  0  0  0  0
  8 14  1  0  0  0  0
  8 15  1  0  0  0  0
  8 28  1  0  0  0  0
  9 29  1  0  0  0  0
  9 30  1  0  0  0  0
  9 31  1  0  0  0  0
 10 32  1  0  0  0  0
 10 33  1  0  0  0  0
 10 34  1  0  0  0  0
 11 35  1  0  0  0  0
 11 36  1  0  0  0  0
 11 37  1  0  0  0  0
 12 38  1  0  0  0  0
 12 39  1  0  0  0  0
 12 40  1  0  0  0  0
 13 41  1  0  0  0  0
 13 42  1  0  0  0  0
 13 43  1  0  0  0  0
 14 21  1  0  0  0  0
 14 44  1  0  0  0  0
 14 45  1  0  0  0  0
 16 46  1  0  0  0  0
 16 47  1  0  0  0  0
 16 48  1  0  0  0  0
 17 49  1  0  0  0  0
 17 50  1  0  0  0  0
 17 51  1  0  0  0  0
 18 52  1  0  0  0  0
 18 53  1  0  0  0  0
 18 54  1  0  0  0  0
 19 55  1  0  0  0  0
 19 56  1  0  0  0  0
 19 57  1  0  0  0  0
 20 58  1  0  0  0  0
 20 59  1  0  0  0  0
 20 60  1  0  0  0  0
 21 22  2  0  0  0  0
 21 23  1  0  0  0  0
 22 24  1  0  0  0  0
 22 61  1  0  0  0  0
 23 25  2  0  0  0  0
 23 62  1  0  0  0  0
 24 26  2  0  0  0  0
 24 63  1  0  0  0  0
 25 26  1  0  0  0  0
 25 64  1  0  0  0  0
 26 65  1  0  0  0  0
M  END
> <PUBCHEM_COMPOUND_CID>
528063
> <PUBCHEM_COMPOUND_CANONICALIZED>
1
> <PUBCHEM_CACTVS_COMPLEXITY>
469
> <PUBCHEM_CACTVS_HBOND_ACCEPTOR>
3
> <PUBCHEM_CACTVS_HBOND_DONOR>
1
> <PUBCHEM_CACTVS_ROTATABLE_BOND>
9
> <PUBCHEM_CACTVS_SUBSKEYS>
AAADcfB6MAwAAAAAAAAAAAAAAAAAAAAAAAAwAAAAAAAAAAABAAAAHhARAEAADCjBuARyCIBAAAGIAiDSCAACAAAgAAAIiIGAAIgKIDKAkRGAIAAkkAAIiAeYyKCOAAAAAAAAAAAAAAAAAAAAAAAAAAAAAA==
> <PUBCHEM_IUPAC_OPENEYE_NAME>
[tert-butyl(dimethyl)silyl] 2-[[tert-butyl(dimethyl)silyl]amino]-3-phenyl-propanoate
> <PUBCHEM_IUPAC_CAS_NAME>
2-[[tert-butyl(dimethyl)silyl]amino]-3-phenylpropanoic acid [tert-butyl(dimethyl)silyl] ester
> <PUBCHEM_IUPAC_NAME_MARKUP>
[<I>tert</I>-butyl(dimethyl)silyl] 2-[[<I>tert</I>-butyl(dimethyl)silyl]amino]-3-phenylpropanoate
> <PUBCHEM_IUPAC_NAME>
[tert-butyl(dimethyl)silyl] 2-[[tert-butyl(dimethyl)silyl]amino]-3-phenylpropanoate
> <PUBCHEM_IUPAC_SYSTEMATIC_NAME>
[tert-butyl(dimethyl)silyl] 2-[[tert-butyl(dimethyl)silyl]amino]-3-phenyl-propanoate
> <PUBCHEM_IUPAC_TRADITIONAL_NAME>
2-[[tert-butyl(dimethyl)silyl]amino]-3-phenyl-propionic acid [tert-butyl(dimethyl)silyl] ester
> <PUBCHEM_IUPAC_INCHI>
InChI=1S/C21H39NO2Si2/c1-20(2,3)25(7,8)22-18(16-17-14-12-11-13-15-17)19(23)24-26(9,10)21(4,5)6/h11-15,18,22H,16H2,1-10H3
> <PUBCHEM_IUPAC_INCHIKEY>
CCHAQKAMPRPVGP-UHFFFAOYSA-N
> <PUBCHEM_EXACT_MASS>
393.25193256
> <PUBCHEM_MOLECULAR_FORMULA>
C21H39NO2Si2
> <PUBCHEM_MOLECULAR_WEIGHT>
393.7
> <PUBCHEM_OPENEYE_CAN_SMILES>
CC(C)(C)[Si](C)(C)NC(CC1=CC=CC=C1)C(=O)O[Si](C)(C)C(C)(C)C
> <PUBCHEM_OPENEYE_ISO_SMILES>
CC(C)(C)[Si](C)(C)NC(CC1=CC=CC=C1)C(=O)O[Si](C)(C)C(C)(C)C
> <PUBCHEM_CACTVS_TPSA>
38.3
> <PUBCHEM_MONOISOTOPIC_WEIGHT>
393.25193256
> <PUBCHEM_TOTAL_CHARGE>
0
> <PUBCHEM_HEAVY_ATOM_COUNT>
26
> <PUBCHEM_ATOM_DEF_STEREO_COUNT>
0
> <PUBCHEM_ATOM_UDEF_STEREO_COUNT>
1
> <PUBCHEM_BOND_DEF_STEREO_COUNT>
0
> <PUBCHEM_BOND_UDEF_STEREO_COUNT>
0
> <PUBCHEM_ISOTOPIC_ATOM_COUNT>
0
> <PUBCHEM_COMPONENT_COUNT>
1
> <PUBCHEM_CACTVS_TAUTO_COUNT>
-1
> <PUBCHEM_COORDINATE_TYPE>
1
5
255
> <PUBCHEM_BONDANNOTATIONS>
21  22  8
21  23  8
22  24  8
23  25  8
24  26  8
25  26  8
8  14  3
$$$$
