528053
  -OEChem-10302200292D
 22 22  0     1  0  0  0  0  0999 V2000
    5.4641   -0.5000    0.0000 N   0  0  0  0  0  0  0  0  0  0  0  0
    5.4641    1.5000    0.0000 N   0  0  0  0  0  0  0  0  0  0  0  0
    3.7320   -0.5000    0.0000 C   0  0  3  0  0  0  0  0  0  0  0  0
    2.8660   -0.0000    0.0000 C   0  0  0  0  0  0  0  0  0  0  0  0
    4.5981   -0.0000    0.0000 C   0  0  0  0  0  0  0  0  0  0  0  0
    3.7320   -1.5000    0.0000 C   0  0  0  0  0  0  0  0  0  0  0  0
    2.0000   -0.5000    0.0000 C   0  0  0  0  0  0  0  0  0  0  0  0
    4.5981    1.0000    0.0000 C   0  0  0  0  0  0  0  0  0  0  0  0
    6.3301    0.0000    0.0000 C   0  0  0  0  0  0  0  0  0  0  0  0
    6.3301    1.0000    0.0000 C   0  0  0  0  0  0  0  0  0  0  0  0
    4.4682   -0.9250    0.0000 H   0  0  0  0  0  0  0  0  0  0  0  0
    3.2646    0.4749    0.0000 H   0  0  0  0  0  0  0  0  0  0  0  0
    2.4675    0.4749    0.0000 H   0  0  0  0  0  0  0  0  0  0  0  0
    3.1120   -1.5000    0.0000 H   0  0  0  0  0  0  0  0  0  0  0  0
    3.7320   -2.1200    0.0000 H   0  0  0  0  0  0  0  0  0  0  0  0
    4.3520   -1.5000    0.0000 H   0  0  0  0  0  0  0  0  0  0  0  0
    1.6900    0.0369    0.0000 H   0  0  0  0  0  0  0  0  0  0  0  0
    1.4631   -0.8100    0.0000 H   0  0  0  0  0  0  0  0  0  0  0  0
    2.3100   -1.0369    0.0000 H   0  0  0  0  0  0  0  0  0  0  0  0
    4.0611    1.3100    0.0000 H   0  0  0  0  0  0  0  0  0  0  0  0
    6.8671   -0.3100    0.0000 H   0  0  0  0  0  0  0  0  0  0  0  0
    6.8671    1.3100    0.0000 H   0  0  0  0  0  0  0  0  0  0  0  0
  1  5  2  0  0  0  0
  1  9  1  0  0  0  0
  2  8  2  0  0  0  0
  2 10  1  0  0  0  0
  3  4  1  0  0  0  0
  3  5  1  0  0  0  0
  3  6  1  0  0  0  0
  3 11  1  0  0  0  0
  4  7  1  0  0  0  0
  4 12  1  0  0  0  0
  4 13  1  0  0  0  0
  5  8  1  0  0  0  0
  6 14  1  0  0  0  0
  6 15  1  0  0  0  0
  6 16  1  0  0  0  0
  7 17  1  0  0  0  0
  7 18  1  0  0  0  0
  7 19  1  0  0  0  0
  8 20  1  0  0  0  0
  9 10  2  0  0  0  0
  9 21  1  0  0  0  0
 10 22  1  0  0  0  0
M  END
> <PUBCHEM_COMPOUND_CID>
528053
> <PUBCHEM_COMPOUND_CANONICALIZED>
1
> <PUBCHEM_CACTVS_COMPLEXITY>
93.3
> <PUBCHEM_CACTVS_HBOND_ACCEPTOR>
2
> <PUBCHEM_CACTVS_HBOND_DONOR>
0
> <PUBCHEM_CACTVS_ROTATABLE_BOND>
2
> <PUBCHEM_CACTVS_SUBSKEYS>
AAADccBzAAAAAAAAAAAAAAAAAAAAAAAAAAAsAAAAAAAAAAABgAAAHAAAAAAADQjBFgQugBIIEACgARRnRAAAgCQxEiAIUAA4cAgAYEJAkQCUAAAAgADAQAAQAAAKAAAAAAAAAAAAAAAAAAAAAAAAAAAAAA==
> <PUBCHEM_IUPAC_OPENEYE_NAME>
2-sec-butylpyrazine
> <PUBCHEM_IUPAC_CAS_NAME>
2-butan-2-ylpyrazine
> <PUBCHEM_IUPAC_NAME_MARKUP>
2-butan-2-ylpyrazine
> <PUBCHEM_IUPAC_NAME>
2-butan-2-ylpyrazine
> <PUBCHEM_IUPAC_SYSTEMATIC_NAME>
2-butan-2-ylpyrazine
> <PUBCHEM_IUPAC_TRADITIONAL_NAME>
2-sec-butylpyrazine
> <PUBCHEM_IUPAC_INCHI>
InChI=1S/C8H12N2/c1-3-7(2)8-6-9-4-5-10-8/h4-7H,3H2,1-2H3
> <PUBCHEM_IUPAC_INCHIKEY>
NFFQZEXYZVZKNN-UHFFFAOYSA-N
> <PUBCHEM_XLOGP3_AA>
1.3
> <PUBCHEM_EXACT_MASS>
136.100048391
> <PUBCHEM_MOLECULAR_FORMULA>
C8H12N2
> <PUBCHEM_MOLECULAR_WEIGHT>
136.19
> <PUBCHEM_OPENEYE_CAN_SMILES>
CCC(C)C1=NC=CN=C1
> <PUBCHEM_OPENEYE_ISO_SMILES>
CCC(C)C1=NC=CN=C1
> <PUBCHEM_CACTVS_TPSA>
25.8
> <PUBCHEM_MONOISOTOPIC_WEIGHT>
136.100048391
> <PUBCHEM_TOTAL_CHARGE>
0
> <PUBCHEM_HEAVY_ATOM_COUNT>
10
> <PUBCHEM_ATOM_DEF_STEREO_COUNT>
0
> <PUBCHEM_ATOM_UDEF_STEREO_COUNT>
1
> <PUBCHEM_BOND_DEF_STEREO_COUNT>
0
> <PUBCHEM_BOND_UDEF_STEREO_COUNT>
0
> <PUBCHEM_ISOTOPIC_ATOM_COUNT>
0
> <PUBCHEM_COMPONENT_COUNT>
1
> <PUBCHEM_CACTVS_TAUTO_COUNT>
2
> <PUBCHEM_COORDINATE_TYPE>
1
5
255
> <PUBCHEM_BONDANNOTATIONS>
1  5  8
1  9  8
2  10  8
2  8  8
3  11  3
5  8  8
9  10  8
$$$$
