528039
  -OEChem-10302200292D
 62 65  0     1  0  0  0  0  0999 V2000
    2.8641   -1.4701    0.0000 Si  0  0  0  0  0  0  0  0  0  0  0  0
    3.7282   -1.9734    0.0000 O   0  0  0  0  0  0  0  0  0  0  0  0
    6.5232    1.5789    0.0000 O   0  0  0  0  0  0  0  0  0  0  0  0
   10.3781    2.3342    0.0000 O   0  0  0  0  0  0  0  0  0  0  0  0
    6.4792   -0.4279    0.0000 C   0  0  3  0  0  0  0  0  0  0  0  0
    8.2552   -0.4211    0.0000 C   0  0  3  0  0  0  0  0  0  0  0  0
    7.3892    0.0789    0.0000 C   0  0  3  0  0  0  0  0  0  0  0  0
    9.1213    0.0789    0.0000 C   0  0  3  0  0  0  0  0  0  0  0  0
    6.4712   -1.4695    0.0000 C   0  0  3  0  0  0  0  0  0  0  0  0
    9.1213    1.0789    0.0000 C   0  0  3  0  0  0  0  0  0  0  0  0
    8.2713   -1.4626    0.0000 C   0  0  0  0  0  0  0  0  0  0  0  0
    7.3733   -1.9903    0.0000 C   0  0  0  0  0  0  0  0  0  0  0  0
    5.5524    0.1362    0.0000 C   0  0  0  0  0  0  0  0  0  0  0  0
    8.2552    1.5789    0.0000 C   0  0  0  0  0  0  0  0  0  0  0  0
    7.3892    1.0789    0.0000 C   0  0  0  0  0  0  0  0  0  0  0  0
    5.5358   -2.0192    0.0000 C   0  0  0  0  0  0  0  0  0  0  0  0
   10.0675   -0.2258    0.0000 C   0  0  0  0  0  0  0  0  0  0  0  0
    6.4869    0.5720    0.0000 C   0  0  0  0  0  0  0  0  0  0  0  0
    4.6045   -0.3918    0.0000 C   0  0  0  0  0  0  0  0  0  0  0  0
    4.5961   -1.4768    0.0000 C   0  0  3  0  0  0  0  0  0  0  0  0
   10.0675    1.3836    0.0000 C   0  0  0  0  0  0  0  0  0  0  0  0
   10.6511    0.5789    0.0000 C   0  0  0  0  0  0  0  0  0  0  0  0
    9.1213    2.0789    0.0000 C   0  0  0  0  0  0  0  0  0  0  0  0
    2.0000   -0.9667    0.0000 C   0  0  0  0  0  0  0  0  0  0  0  0
    2.3608   -2.3342    0.0000 C   0  0  0  0  0  0  0  0  0  0  0  0
    3.3674   -0.6060    0.0000 C   0  0  0  0  0  0  0  0  0  0  0  0
    8.7945   -0.7269    0.0000 H   0  0  0  0  0  0  0  0  0  0  0  0
    7.9262    0.3889    0.0000 H   0  0  0  0  0  0  0  0  0  0  0  0
    9.1869   -0.5376    0.0000 H   0  0  0  0  0  0  0  0  0  0  0  0
    6.4736   -2.0895    0.0000 H   0  0  0  0  0  0  0  0  0  0  0  0
    8.4893   -2.0430    0.0000 H   0  0  0  0  0  0  0  0  0  0  0  0
    8.8804   -1.3471    0.0000 H   0  0  0  0  0  0  0  0  0  0  0  0
    6.9760   -2.4663    0.0000 H   0  0  0  0  0  0  0  0  0  0  0  0
    7.7742   -2.4632    0.0000 H   0  0  0  0  0  0  0  0  0  0  0  0
    5.9606    0.6028    0.0000 H   0  0  0  0  0  0  0  0  0  0  0  0
    5.1625    0.6182    0.0000 H   0  0  0  0  0  0  0  0  0  0  0  0
    8.6538    2.0539    0.0000 H   0  0  0  0  0  0  0  0  0  0  0  0
    7.8567    2.0539    0.0000 H   0  0  0  0  0  0  0  0  0  0  0  0
    5.1385   -2.4952    0.0000 H   0  0  0  0  0  0  0  0  0  0  0  0
    5.9367   -2.4922    0.0000 H   0  0  0  0  0  0  0  0  0  0  0  0
    9.8164   -0.7927    0.0000 H   0  0  0  0  0  0  0  0  0  0  0  0
   10.6049   -0.5350    0.0000 H   0  0  0  0  0  0  0  0  0  0  0  0
    7.1069    0.5673    0.0000 H   0  0  0  0  0  0  0  0  0  0  0  0
    6.4917    1.1920    0.0000 H   0  0  0  0  0  0  0  0  0  0  0  0
    5.8669    0.5768    0.0000 H   0  0  0  0  0  0  0  0  0  0  0  0
    4.3999    0.1935    0.0000 H   0  0  0  0  0  0  0  0  0  0  0  0
    3.9928   -0.4932    0.0000 H   0  0  0  0  0  0  0  0  0  0  0  0
    4.5949   -2.0968    0.0000 H   0  0  0  0  0  0  0  0  0  0  0  0
   11.1120    0.1642    0.0000 H   0  0  0  0  0  0  0  0  0  0  0  0
   11.1120    0.9936    0.0000 H   0  0  0  0  0  0  0  0  0  0  0  0
    9.7413    2.0789    0.0000 H   0  0  0  0  0  0  0  0  0  0  0  0
    9.1213    2.6989    0.0000 H   0  0  0  0  0  0  0  0  0  0  0  0
    8.5013    2.0789    0.0000 H   0  0  0  0  0  0  0  0  0  0  0  0
    2.3121   -0.4310    0.0000 H   0  0  0  0  0  0  0  0  0  0  0  0
    1.4643   -0.6547    0.0000 H   0  0  0  0  0  0  0  0  0  0  0  0
    1.6879   -1.5025    0.0000 H   0  0  0  0  0  0  0  0  0  0  0  0
    1.8250   -2.0221    0.0000 H   0  0  0  0  0  0  0  0  0  0  0  0
    2.0487   -2.8699    0.0000 H   0  0  0  0  0  0  0  0  0  0  0  0
    2.8965   -2.6462    0.0000 H   0  0  0  0  0  0  0  0  0  0  0  0
    3.9032   -0.9181    0.0000 H   0  0  0  0  0  0  0  0  0  0  0  0
    3.6795   -0.0703    0.0000 H   0  0  0  0  0  0  0  0  0  0  0  0
    2.8317   -0.2939    0.0000 H   0  0  0  0  0  0  0  0  0  0  0  0
  1  2  1  0  0  0  0
  1 24  1  0  0  0  0
  1 25  1  0  0  0  0
  1 26  1  0  0  0  0
  2 20  1  0  0  0  0
  3 15  2  0  0  0  0
  4 21  2  0  0  0  0
  5  7  1  0  0  0  0
  5  9  1  0  0  0  0
  5 13  1  0  0  0  0
  5 18  1  0  0  0  0
  6  7  1  0  0  0  0
  6  8  1  0  0  0  0
  6 11  1  0  0  0  0
  6 27  1  0  0  0  0
  7 15  1  0  0  0  0
  7 28  1  0  0  0  0
  8 10  1  0  0  0  0
  8 17  1  0  0  0  0
  8 29  1  0  0  0  0
  9 12  1  0  0  0  0
  9 16  1  0  0  0  0
  9 30  1  0  0  0  0
 10 14  1  0  0  0  0
 10 21  1  0  0  0  0
 10 23  1  0  0  0  0
 11 12  1  0  0  0  0
 11 31  1  0  0  0  0
 11 32  1  0  0  0  0
 12 33  1  0  0  0  0
 12 34  1  0  0  0  0
 13 19  1  0  0  0  0
 13 35  1  0  0  0  0
 13 36  1  0  0  0  0
 14 15  1  0  0  0  0
 14 37  1  0  0  0  0
 14 38  1  0  0  0  0
 16 20  1  0  0  0  0
 16 39  1  0  0  0  0
 16 40  1  0  0  0  0
 17 22  1  0  0  0  0
 17 41  1  0  0  0  0
 17 42  1  0  0  0  0
 18 43  1  0  0  0  0
 18 44  1  0  0  0  0
 18 45  1  0  0  0  0
 19 20  1  0  0  0  0
 19 46  1  0  0  0  0
 19 47  1  0  0  0  0
 20 48  1  0  0  0  0
 21 22  1  0  0  0  0
 22 49  1  0  0  0  0
 22 50  1  0  0  0  0
 23 51  1  0  0  0  0
 23 52  1  0  0  0  0
 23 53  1  0  0  0  0
 24 54  1  0  0  0  0
 24 55  1  0  0  0  0
 24 56  1  0  0  0  0
 25 57  1  0  0  0  0
 25 58  1  0  0  0  0
 25 59  1  0  0  0  0
 26 60  1  0  0  0  0
 26 61  1  0  0  0  0
 26 62  1  0  0  0  0
M  END
> <PUBCHEM_COMPOUND_CID>
528039
> <PUBCHEM_COMPOUND_CANONICALIZED>
1
> <PUBCHEM_CACTVS_COMPLEXITY>
623
> <PUBCHEM_CACTVS_HBOND_ACCEPTOR>
3
> <PUBCHEM_CACTVS_HBOND_DONOR>
0
> <PUBCHEM_CACTVS_ROTATABLE_BOND>
2
> <PUBCHEM_CACTVS_SUBSKEYS>
AAADcfB4MAgAAAAAAAAAAAAAAAAAAYAAAAAwYMAAAAAAAGDAAAAAGhAAAEAADxSggAJCAAAAAAEIAIAQAAAAAAAAAAAAAAEAAAAAABIAAAAAAAAEAAAAAAGJyPCPgAAAAAAAAADAAAYAACAAAAAACAAAAA==
> <PUBCHEM_IUPAC_OPENEYE_NAME>
10,13-dimethyl-3-trimethylsilyloxy-2,3,4,5,6,7,8,9,12,14,15,16-dodecahydro-1H-cyclopenta[a]phenanthrene-11,17-dione
> <PUBCHEM_IUPAC_CAS_NAME>
10,13-dimethyl-3-trimethylsilyloxy-2,3,4,5,6,7,8,9,12,14,15,16-dodecahydro-1H-cyclopenta[a]phenanthrene-11,17-dione
> <PUBCHEM_IUPAC_NAME_MARKUP>
10,13-dimethyl-3-trimethylsilyloxy-2,3,4,5,6,7,8,9,12,14,15,16-dodecahydro-1<I>H</I>-cyclopenta[a]phenanthrene-11,17-dione
> <PUBCHEM_IUPAC_NAME>
10,13-dimethyl-3-trimethylsilyloxy-2,3,4,5,6,7,8,9,12,14,15,16-dodecahydro-1H-cyclopenta[a]phenanthrene-11,17-dione
> <PUBCHEM_IUPAC_SYSTEMATIC_NAME>
10,13-dimethyl-3-trimethylsilyloxy-2,3,4,5,6,7,8,9,12,14,15,16-dodecahydro-1H-cyclopenta[a]phenanthrene-11,17-dione
> <PUBCHEM_IUPAC_TRADITIONAL_NAME>
10,13-dimethyl-3-trimethylsilyloxy-2,3,4,5,6,7,8,9,12,14,15,16-dodecahydro-1H-cyclopenta[a]phenanthrene-11,17-quinone
> <PUBCHEM_IUPAC_INCHI>
InChI=1S/C22H36O3Si/c1-21-11-10-15(25-26(3,4)5)12-14(21)6-7-16-17-8-9-19(24)22(17,2)13-18(23)20(16)21/h14-17,20H,6-13H2,1-5H3
> <PUBCHEM_IUPAC_INCHIKEY>
CCJDJZHCDREQKR-UHFFFAOYSA-N
> <PUBCHEM_EXACT_MASS>
376.24337154
> <PUBCHEM_MOLECULAR_FORMULA>
C22H36O3Si
> <PUBCHEM_MOLECULAR_WEIGHT>
376.6
> <PUBCHEM_OPENEYE_CAN_SMILES>
CC12CCC(CC1CCC3C2C(=O)CC4(C3CCC4=O)C)O[Si](C)(C)C
> <PUBCHEM_OPENEYE_ISO_SMILES>
CC12CCC(CC1CCC3C2C(=O)CC4(C3CCC4=O)C)O[Si](C)(C)C
> <PUBCHEM_CACTVS_TPSA>
43.4
> <PUBCHEM_MONOISOTOPIC_WEIGHT>
376.24337154
> <PUBCHEM_TOTAL_CHARGE>
0
> <PUBCHEM_HEAVY_ATOM_COUNT>
26
> <PUBCHEM_ATOM_DEF_STEREO_COUNT>
0
> <PUBCHEM_ATOM_UDEF_STEREO_COUNT>
7
> <PUBCHEM_BOND_DEF_STEREO_COUNT>
0
> <PUBCHEM_BOND_UDEF_STEREO_COUNT>
0
> <PUBCHEM_ISOTOPIC_ATOM_COUNT>
0
> <PUBCHEM_COMPONENT_COUNT>
1
> <PUBCHEM_CACTVS_TAUTO_COUNT>
-1
> <PUBCHEM_COORDINATE_TYPE>
1
5
255
> <PUBCHEM_BONDANNOTATIONS>
10  23  3
20  2  3
5  18  3
6  11  3
7  15  3
8  17  3
9  12  3
$$$$
