528031
  -OEChem-10302200292D
 35 36  0     1  0  0  0  0  0999 V2000
    5.4641    0.7500    0.0000 O   0  0  0  0  0  0  0  0  0  0  0  0
    3.7320    0.7500    0.0000 O   0  0  0  0  0  0  0  0  0  0  0  0
    6.3301   -3.7500    0.0000 O   0  5  0  0  0  0  0  0  0  0  0  0
    2.8660   -3.7500    0.0000 O   0  5  0  0  0  0  0  0  0  0  0  0
    7.1962   -2.2500    0.0000 O   0  0  0  0  0  0  0  0  0  0  0  0
    2.0000   -2.2500    0.0000 O   0  0  0  0  0  0  0  0  0  0  0  0
    6.3301   -2.7500    0.0000 N   0  3  0  0  0  0  0  0  0  0  0  0
    2.8660   -2.7500    0.0000 N   0  3  0  0  0  0  0  0  0  0  0  0
    5.4641    1.7500    0.0000 C   0  0  3  0  0  0  0  0  0  0  0  0
    6.3301    2.2500    0.0000 C   0  0  0  0  0  0  0  0  0  0  0  0
    4.5981    2.2500    0.0000 C   0  0  0  0  0  0  0  0  0  0  0  0
    4.5981   -0.7500    0.0000 C   0  0  0  0  0  0  0  0  0  0  0  0
    6.3301    3.2500    0.0000 C   0  0  0  0  0  0  0  0  0  0  0  0
    7.1962    1.7500    0.0000 C   0  0  0  0  0  0  0  0  0  0  0  0
    4.5981    0.2500    0.0000 C   0  0  0  0  0  0  0  0  0  0  0  0
    3.7320   -1.2500    0.0000 C   0  0  0  0  0  0  0  0  0  0  0  0
    5.4641   -1.2500    0.0000 C   0  0  0  0  0  0  0  0  0  0  0  0
    5.4641   -2.2500    0.0000 C   0  0  0  0  0  0  0  0  0  0  0  0
    3.7320   -2.2500    0.0000 C   0  0  0  0  0  0  0  0  0  0  0  0
    4.5981   -2.7500    0.0000 C   0  0  0  0  0  0  0  0  0  0  0  0
    7.1962    3.7500    0.0000 C   0  0  0  0  0  0  0  0  0  0  0  0
    8.0622    2.2500    0.0000 C   0  0  0  0  0  0  0  0  0  0  0  0
    8.0622    3.2500    0.0000 C   0  0  0  0  0  0  0  0  0  0  0  0
    6.0010    1.4400    0.0000 H   0  0  0  0  0  0  0  0  0  0  0  0
    4.9081    2.7869    0.0000 H   0  0  0  0  0  0  0  0  0  0  0  0
    4.0611    2.5600    0.0000 H   0  0  0  0  0  0  0  0  0  0  0  0
    4.2881    1.7131    0.0000 H   0  0  0  0  0  0  0  0  0  0  0  0
    5.7932    3.5600    0.0000 H   0  0  0  0  0  0  0  0  0  0  0  0
    7.1962    1.1300    0.0000 H   0  0  0  0  0  0  0  0  0  0  0  0
    3.1951   -0.9400    0.0000 H   0  0  0  0  0  0  0  0  0  0  0  0
    6.0010   -0.9400    0.0000 H   0  0  0  0  0  0  0  0  0  0  0  0
    4.5981   -3.3700    0.0000 H   0  0  0  0  0  0  0  0  0  0  0  0
    7.1962    4.3700    0.0000 H   0  0  0  0  0  0  0  0  0  0  0  0
    8.5991    1.9400    0.0000 H   0  0  0  0  0  0  0  0  0  0  0  0
    8.5991    3.5600    0.0000 H   0  0  0  0  0  0  0  0  0  0  0  0
  1  9  1  0  0  0  0
  1 15  1  0  0  0  0
  2 15  2  0  0  0  0
  3  7  1  0  0  0  0
  4  8  1  0  0  0  0
  5  7  2  0  0  0  0
  6  8  2  0  0  0  0
  7 18  1  0  0  0  0
  8 19  1  0  0  0  0
  9 10  1  0  0  0  0
  9 11  1  0  0  0  0
  9 24  1  0  0  0  0
 10 13  2  0  0  0  0
 10 14  1  0  0  0  0
 11 25  1  0  0  0  0
 11 26  1  0  0  0  0
 11 27  1  0  0  0  0
 12 15  1  0  0  0  0
 12 16  2  0  0  0  0
 12 17  1  0  0  0  0
 13 21  1  0  0  0  0
 13 28  1  0  0  0  0
 14 22  2  0  0  0  0
 14 29  1  0  0  0  0
 16 19  1  0  0  0  0
 16 30  1  0  0  0  0
 17 18  2  0  0  0  0
 17 31  1  0  0  0  0
 18 20  1  0  0  0  0
 19 20  2  0  0  0  0
 20 32  1  0  0  0  0
 21 23  2  0  0  0  0
 21 33  1  0  0  0  0
 22 23  1  0  0  0  0
 22 34  1  0  0  0  0
 23 35  1  0  0  0  0
M  CHG  4   3  -1   4  -1   7   1   8   1
M  END
> <PUBCHEM_COMPOUND_CID>
528031
> <PUBCHEM_COMPOUND_CANONICALIZED>
1
> <PUBCHEM_CACTVS_COMPLEXITY>
430
> <PUBCHEM_CACTVS_HBOND_ACCEPTOR>
6
> <PUBCHEM_CACTVS_HBOND_DONOR>
0
> <PUBCHEM_CACTVS_ROTATABLE_BOND>
4
> <PUBCHEM_CACTVS_SUBSKEYS>
AAADccBzOAAAAAAAAAAAAAAAAAAAAAAAAAAwYAAAAAAAAAABQAAAHgAEAAAADByhmAIyyIAQRACJAiTSSwCCAAAkAgAoiAEAbMoIJjKA9dmCMQBkwAEI6Ye8yKCOAAAAQAQAAAAAAACACAAAAAAAAAAAAA==
> <PUBCHEM_IUPAC_OPENEYE_NAME>
1-phenylethyl 3,5-dinitrobenzoate
> <PUBCHEM_IUPAC_CAS_NAME>
3,5-dinitrobenzoic acid 1-phenylethyl ester
> <PUBCHEM_IUPAC_NAME_MARKUP>
1-phenylethyl 3,5-dinitrobenzoate
> <PUBCHEM_IUPAC_NAME>
1-phenylethyl 3,5-dinitrobenzoate
> <PUBCHEM_IUPAC_SYSTEMATIC_NAME>
1-phenylethyl 3,5-dinitrobenzoate
> <PUBCHEM_IUPAC_TRADITIONAL_NAME>
3,5-dinitrobenzoic acid 1-phenylethyl ester
> <PUBCHEM_IUPAC_INCHI>
InChI=1S/C15H12N2O6/c1-10(11-5-3-2-4-6-11)23-15(18)12-7-13(16(19)20)9-14(8-12)17(21)22/h2-10H,1H3
> <PUBCHEM_IUPAC_INCHIKEY>
YATKDADIXNBBCZ-UHFFFAOYSA-N
> <PUBCHEM_XLOGP3_AA>
3.3
> <PUBCHEM_EXACT_MASS>
316.06953611
> <PUBCHEM_MOLECULAR_FORMULA>
C15H12N2O6
> <PUBCHEM_MOLECULAR_WEIGHT>
316.26
> <PUBCHEM_OPENEYE_CAN_SMILES>
CC(C1=CC=CC=C1)OC(=O)C2=CC(=CC(=C2)[N+](=O)[O-])[N+](=O)[O-]
> <PUBCHEM_OPENEYE_ISO_SMILES>
CC(C1=CC=CC=C1)OC(=O)C2=CC(=CC(=C2)[N+](=O)[O-])[N+](=O)[O-]
> <PUBCHEM_CACTVS_TPSA>
118
> <PUBCHEM_MONOISOTOPIC_WEIGHT>
316.06953611
> <PUBCHEM_TOTAL_CHARGE>
0
> <PUBCHEM_HEAVY_ATOM_COUNT>
23
> <PUBCHEM_ATOM_DEF_STEREO_COUNT>
0
> <PUBCHEM_ATOM_UDEF_STEREO_COUNT>
1
> <PUBCHEM_BOND_DEF_STEREO_COUNT>
0
> <PUBCHEM_BOND_UDEF_STEREO_COUNT>
0
> <PUBCHEM_ISOTOPIC_ATOM_COUNT>
0
> <PUBCHEM_COMPONENT_COUNT>
1
> <PUBCHEM_CACTVS_TAUTO_COUNT>
-1
> <PUBCHEM_COORDINATE_TYPE>
1
5
255
> <PUBCHEM_BONDANNOTATIONS>
10  13  8
10  14  8
12  16  8
12  17  8
13  21  8
14  22  8
16  19  8
17  18  8
18  20  8
19  20  8
21  23  8
22  23  8
9  11  3
$$$$
