528064
  -OEChem-10302200292D
 59 59  0     1  0  0  0  0  0999 V2000
    7.3564   -0.2950    0.0000 Si  0  0  0  0  0  0  0  0  0  0  0  0
    3.9021    1.3439    0.0000 Si  0  0  0  0  0  0  0  0  0  0  0  0
    4.8532    1.6529    0.0000 O   0  0  0  0  0  0  0  0  0  0  0  0
    5.3884    0.0057    0.0000 O   0  0  0  0  0  0  0  0  0  0  0  0
    7.3564    0.7050    0.0000 N   0  0  3  0  0  0  0  0  0  0  0  0
    7.3564   -1.2950    0.0000 C   0  0  0  0  0  0  0  0  0  0  0  0
    6.5474    1.2928    0.0000 C   0  0  3  0  0  0  0  0  0  0  0  0
    8.1654    1.2928    0.0000 C   0  0  0  0  0  0  0  0  0  0  0  0
    6.8564    2.2439    0.0000 C   0  0  0  0  0  0  0  0  0  0  0  0
    7.8564    2.2439    0.0000 C   0  0  0  0  0  0  0  0  0  0  0  0
    8.3564   -0.2950    0.0000 C   0  0  0  0  0  0  0  0  0  0  0  0
    6.3564   -0.2950    0.0000 C   0  0  0  0  0  0  0  0  0  0  0  0
    7.3564   -2.2950    0.0000 C   0  0  0  0  0  0  0  0  0  0  0  0
    8.3564   -1.2950    0.0000 C   0  0  0  0  0  0  0  0  0  0  0  0
    6.3564   -1.2950    0.0000 C   0  0  0  0  0  0  0  0  0  0  0  0
    5.5963    0.9838    0.0000 C   0  0  0  0  0  0  0  0  0  0  0  0
    2.9511    1.0349    0.0000 C   0  0  0  0  0  0  0  0  0  0  0  0
    3.5931    2.2950    0.0000 C   0  0  0  0  0  0  0  0  0  0  0  0
    4.2111    0.3929    0.0000 C   0  0  0  0  0  0  0  0  0  0  0  0
    2.0000    0.7259    0.0000 C   0  0  0  0  0  0  0  0  0  0  0  0
    2.6420    1.9860    0.0000 C   0  0  0  0  0  0  0  0  0  0  0  0
    3.2601    0.0838    0.0000 C   0  0  0  0  0  0  0  0  0  0  0  0
    6.4504    0.6804    0.0000 H   0  0  0  0  0  0  0  0  0  0  0  0
    8.4754    0.7559    0.0000 H   0  0  0  0  0  0  0  0  0  0  0  0
    8.7318    1.5450    0.0000 H   0  0  0  0  0  0  0  0  0  0  0  0
    6.9212    2.8605    0.0000 H   0  0  0  0  0  0  0  0  0  0  0  0
    6.2499    2.3728    0.0000 H   0  0  0  0  0  0  0  0  0  0  0  0
    8.4628    2.3728    0.0000 H   0  0  0  0  0  0  0  0  0  0  0  0
    7.7916    2.8605    0.0000 H   0  0  0  0  0  0  0  0  0  0  0  0
    8.3564   -0.9150    0.0000 H   0  0  0  0  0  0  0  0  0  0  0  0
    8.9764   -0.2950    0.0000 H   0  0  0  0  0  0  0  0  0  0  0  0
    8.3564    0.3250    0.0000 H   0  0  0  0  0  0  0  0  0  0  0  0
    6.3564    0.3250    0.0000 H   0  0  0  0  0  0  0  0  0  0  0  0
    5.7364   -0.2950    0.0000 H   0  0  0  0  0  0  0  0  0  0  0  0
    6.3564   -0.9150    0.0000 H   0  0  0  0  0  0  0  0  0  0  0  0
    6.7364   -2.2950    0.0000 H   0  0  0  0  0  0  0  0  0  0  0  0
    7.3564   -2.9150    0.0000 H   0  0  0  0  0  0  0  0  0  0  0  0
    7.9764   -2.2950    0.0000 H   0  0  0  0  0  0  0  0  0  0  0  0
    8.3564   -1.9150    0.0000 H   0  0  0  0  0  0  0  0  0  0  0  0
    8.9764   -1.2950    0.0000 H   0  0  0  0  0  0  0  0  0  0  0  0
    8.3564   -0.6750    0.0000 H   0  0  0  0  0  0  0  0  0  0  0  0
    6.3564   -0.6750    0.0000 H   0  0  0  0  0  0  0  0  0  0  0  0
    5.7364   -1.2950    0.0000 H   0  0  0  0  0  0  0  0  0  0  0  0
    6.3564   -1.9150    0.0000 H   0  0  0  0  0  0  0  0  0  0  0  0
    4.1828    2.4866    0.0000 H   0  0  0  0  0  0  0  0  0  0  0  0
    3.4015    2.8846    0.0000 H   0  0  0  0  0  0  0  0  0  0  0  0
    3.0034    2.1034    0.0000 H   0  0  0  0  0  0  0  0  0  0  0  0
    3.6215    0.2013    0.0000 H   0  0  0  0  0  0  0  0  0  0  0  0
    4.4027   -0.1968    0.0000 H   0  0  0  0  0  0  0  0  0  0  0  0
    4.8008    0.5844    0.0000 H   0  0  0  0  0  0  0  0  0  0  0  0
    1.8084    1.3155    0.0000 H   0  0  0  0  0  0  0  0  0  0  0  0
    1.4103    0.5343    0.0000 H   0  0  0  0  0  0  0  0  0  0  0  0
    2.1916    0.1362    0.0000 H   0  0  0  0  0  0  0  0  0  0  0  0
    3.2317    2.1775    0.0000 H   0  0  0  0  0  0  0  0  0  0  0  0
    2.4504    2.5756    0.0000 H   0  0  0  0  0  0  0  0  0  0  0  0
    2.0524    1.7944    0.0000 H   0  0  0  0  0  0  0  0  0  0  0  0
    2.6704   -0.1078    0.0000 H   0  0  0  0  0  0  0  0  0  0  0  0
    3.4517   -0.5058    0.0000 H   0  0  0  0  0  0  0  0  0  0  0  0
    3.8497    0.2754    0.0000 H   0  0  0  0  0  0  0  0  0  0  0  0
  1  5  1  0  0  0  0
  1  6  1  0  0  0  0
  1 11  1  0  0  0  0
  1 12  1  0  0  0  0
  2  3  1  0  0  0  0
  2 17  1  0  0  0  0
  2 18  1  0  0  0  0
  2 19  1  0  0  0  0
  3 16  1  0  0  0  0
  4 16  2  0  0  0  0
  5  7  1  0  0  0  0
  5  8  1  0  0  0  0
  6 13  1  0  0  0  0
  6 14  1  0  0  0  0
  6 15  1  0  0  0  0
  7  9  1  0  0  0  0
  7 16  1  0  0  0  0
  7 23  1  0  0  0  0
  8 10  1  0  0  0  0
  8 24  1  0  0  0  0
  8 25  1  0  0  0  0
  9 10  1  0  0  0  0
  9 26  1  0  0  0  0
  9 27  1  0  0  0  0
 10 28  1  0  0  0  0
 10 29  1  0  0  0  0
 11 30  1  0  0  0  0
 11 31  1  0  0  0  0
 11 32  1  0  0  0  0
 12 33  1  0  0  0  0
 12 34  1  0  0  0  0
 12 35  1  0  0  0  0
 13 36  1  0  0  0  0
 13 37  1  0  0  0  0
 13 38  1  0  0  0  0
 14 39  1  0  0  0  0
 14 40  1  0  0  0  0
 14 41  1  0  0  0  0
 15 42  1  0  0  0  0
 15 43  1  0  0  0  0
 15 44  1  0  0  0  0
 17 20  1  0  0  0  0
 17 21  1  0  0  0  0
 17 22  1  0  0  0  0
 18 45  1  0  0  0  0
 18 46  1  0  0  0  0
 18 47  1  0  0  0  0
 19 48  1  0  0  0  0
 19 49  1  0  0  0  0
 19 50  1  0  0  0  0
 20 51  1  0  0  0  0
 20 52  1  0  0  0  0
 20 53  1  0  0  0  0
 21 54  1  0  0  0  0
 21 55  1  0  0  0  0
 21 56  1  0  0  0  0
 22 57  1  0  0  0  0
 22 58  1  0  0  0  0
 22 59  1  0  0  0  0
M  END
> <PUBCHEM_COMPOUND_CID>
528064
> <PUBCHEM_COMPOUND_CANONICALIZED>
1
> <PUBCHEM_CACTVS_COMPLEXITY>
419
> <PUBCHEM_CACTVS_HBOND_ACCEPTOR>
3
> <PUBCHEM_CACTVS_HBOND_DONOR>
0
> <PUBCHEM_CACTVS_ROTATABLE_BOND>
6
> <PUBCHEM_CACTVS_SUBSKEYS>
AAADcfB6MAwAAAAAAAAAAAAAAAAAAWAAAAAAAAAAAAAAAAAAAAAAHhABAEAADCjBoARCCAIAAAEIAACQCAAAAAAAAAAAAAGIAAACABIAgCAEAAAEAACQAACYEQAAAAAAAAAAAAAAAAAAAAAAAAAAAAAAAA==
> <PUBCHEM_IUPAC_OPENEYE_NAME>
[tert-butyl(dimethyl)silyl] 1-[tert-butyl(dimethyl)silyl]pyrrolidine-2-carboxylate
> <PUBCHEM_IUPAC_CAS_NAME>
1-[tert-butyl(dimethyl)silyl]-2-pyrrolidinecarboxylic acid [tert-butyl(dimethyl)silyl] ester
> <PUBCHEM_IUPAC_NAME_MARKUP>
[<I>tert</I>-butyl(dimethyl)silyl] 1-[<I>tert</I>-butyl(dimethyl)silyl]pyrrolidine-2-carboxylate
> <PUBCHEM_IUPAC_NAME>
[tert-butyl(dimethyl)silyl] 1-[tert-butyl(dimethyl)silyl]pyrrolidine-2-carboxylate
> <PUBCHEM_IUPAC_SYSTEMATIC_NAME>
[tert-butyl(dimethyl)silyl] 1-[tert-butyl(dimethyl)silyl]pyrrolidine-2-carboxylate
> <PUBCHEM_IUPAC_TRADITIONAL_NAME>
1-[tert-butyl(dimethyl)silyl]pyrrolidine-2-carboxylic acid [tert-butyl(dimethyl)silyl] ester
> <PUBCHEM_IUPAC_INCHI>
InChI=1S/C17H37NO2Si2/c1-16(2,3)21(7,8)18-13-11-12-14(18)15(19)20-22(9,10)17(4,5)6/h14H,11-13H2,1-10H3
> <PUBCHEM_IUPAC_INCHIKEY>
ZSQADQXTZNAIQH-UHFFFAOYSA-N
> <PUBCHEM_EXACT_MASS>
343.23628249
> <PUBCHEM_MOLECULAR_FORMULA>
C17H37NO2Si2
> <PUBCHEM_MOLECULAR_WEIGHT>
343.7
> <PUBCHEM_OPENEYE_CAN_SMILES>
CC(C)(C)[Si](C)(C)N1CCCC1C(=O)O[Si](C)(C)C(C)(C)C
> <PUBCHEM_OPENEYE_ISO_SMILES>
CC(C)(C)[Si](C)(C)N1CCCC1C(=O)O[Si](C)(C)C(C)(C)C
> <PUBCHEM_CACTVS_TPSA>
29.5
> <PUBCHEM_MONOISOTOPIC_WEIGHT>
343.23628249
> <PUBCHEM_TOTAL_CHARGE>
0
> <PUBCHEM_HEAVY_ATOM_COUNT>
22
> <PUBCHEM_ATOM_DEF_STEREO_COUNT>
0
> <PUBCHEM_ATOM_UDEF_STEREO_COUNT>
1
> <PUBCHEM_BOND_DEF_STEREO_COUNT>
0
> <PUBCHEM_BOND_UDEF_STEREO_COUNT>
0
> <PUBCHEM_ISOTOPIC_ATOM_COUNT>
0
> <PUBCHEM_COMPONENT_COUNT>
1
> <PUBCHEM_CACTVS_TAUTO_COUNT>
-1
> <PUBCHEM_COORDINATE_TYPE>
1
5
255
> <PUBCHEM_BONDANNOTATIONS>
7  16  3
$$$$
