528059
  -OEChem-10302200292D
 62 62  0     1  0  0  0  0  0999 V2000
    3.4863   -1.1468    0.0000 Si  0  0  0  0  0  0  0  0  0  0  0  0
    4.8532    1.1185    0.0000 Si  0  0  0  0  0  0  0  0  0  0  0  0
    4.6453    0.1404    0.0000 O   0  0  0  0  0  0  0  0  0  0  0  0
    6.3395   -0.2197    0.0000 O   0  0  0  0  0  0  0  0  0  0  0  0
    4.2294   -1.8159    0.0000 N   0  0  0  0  0  0  0  0  0  0  0  0
    7.6837   -2.4548    0.0000 N   0  0  0  0  0  0  0  0  0  0  0  0
    8.1837   -0.9160    0.0000 N   0  0  0  0  0  0  0  0  0  0  0  0
    2.7431   -0.4777    0.0000 C   0  0  0  0  0  0  0  0  0  0  0  0
    5.0611    2.0967    0.0000 C   0  0  0  0  0  0  0  0  0  0  0  0
    5.1805   -1.5069    0.0000 C   0  0  3  0  0  0  0  0  0  0  0  0
    2.8172   -1.8899    0.0000 C   0  0  0  0  0  0  0  0  0  0  0  0
    4.1554   -0.4037    0.0000 C   0  0  0  0  0  0  0  0  0  0  0  0
    2.0000    0.1915    0.0000 C   0  0  0  0  0  0  0  0  0  0  0  0
    2.0740   -1.2208    0.0000 C   0  0  0  0  0  0  0  0  0  0  0  0
    3.4123    0.2655    0.0000 C   0  0  0  0  0  0  0  0  0  0  0  0
    5.9236   -2.1760    0.0000 C   0  0  0  0  0  0  0  0  0  0  0  0
    5.3884   -0.5288    0.0000 C   0  0  0  0  0  0  0  0  0  0  0  0
    5.2690    3.0748    0.0000 C   0  0  0  0  0  0  0  0  0  0  0  0
    4.0829    2.3046    0.0000 C   0  0  0  0  0  0  0  0  0  0  0  0
    6.0392    1.8888    0.0000 C   0  0  0  0  0  0  0  0  0  0  0  0
    3.8750    1.3264    0.0000 C   0  0  0  0  0  0  0  0  0  0  0  0
    5.8313    0.9106    0.0000 C   0  0  0  0  0  0  0  0  0  0  0  0
    6.8747   -1.8670    0.0000 C   0  0  0  0  0  0  0  0  0  0  0  0
    7.1837   -0.9160    0.0000 C   0  0  0  0  0  0  0  0  0  0  0  0
    8.4927   -1.8670    0.0000 C   0  0  0  0  0  0  0  0  0  0  0  0
    4.1005   -2.4224    0.0000 H   0  0  0  0  0  0  0  0  0  0  0  0
    5.0516   -2.1134    0.0000 H   0  0  0  0  0  0  0  0  0  0  0  0
    2.3564   -1.4751    0.0000 H   0  0  0  0  0  0  0  0  0  0  0  0
    2.4023   -2.3507    0.0000 H   0  0  0  0  0  0  0  0  0  0  0  0
    3.2779   -2.3048    0.0000 H   0  0  0  0  0  0  0  0  0  0  0  0
    4.6162   -0.8185    0.0000 H   0  0  0  0  0  0  0  0  0  0  0  0
    4.5703    0.0571    0.0000 H   0  0  0  0  0  0  0  0  0  0  0  0
    3.6947    0.0112    0.0000 H   0  0  0  0  0  0  0  0  0  0  0  0
    2.4149    0.6522    0.0000 H   0  0  0  0  0  0  0  0  0  0  0  0
    1.5392    0.6063    0.0000 H   0  0  0  0  0  0  0  0  0  0  0  0
    1.5851   -0.2693    0.0000 H   0  0  0  0  0  0  0  0  0  0  0  0
    1.6133   -0.8060    0.0000 H   0  0  0  0  0  0  0  0  0  0  0  0
    1.6592   -1.6816    0.0000 H   0  0  0  0  0  0  0  0  0  0  0  0
    2.5348   -1.6357    0.0000 H   0  0  0  0  0  0  0  0  0  0  0  0
    3.8730   -0.1494    0.0000 H   0  0  0  0  0  0  0  0  0  0  0  0
    3.8271    0.7262    0.0000 H   0  0  0  0  0  0  0  0  0  0  0  0
    2.9515    0.6803    0.0000 H   0  0  0  0  0  0  0  0  0  0  0  0
    5.4351   -2.5578    0.0000 H   0  0  0  0  0  0  0  0  0  0  0  0
    6.2147   -2.7235    0.0000 H   0  0  0  0  0  0  0  0  0  0  0  0
    5.8754    2.9459    0.0000 H   0  0  0  0  0  0  0  0  0  0  0  0
    5.3979    3.6813    0.0000 H   0  0  0  0  0  0  0  0  0  0  0  0
    4.6625    3.2037    0.0000 H   0  0  0  0  0  0  0  0  0  0  0  0
    4.2118    2.9110    0.0000 H   0  0  0  0  0  0  0  0  0  0  0  0
    3.4765    2.4335    0.0000 H   0  0  0  0  0  0  0  0  0  0  0  0
    3.9540    1.6981    0.0000 H   0  0  0  0  0  0  0  0  0  0  0  0
    5.9103    1.2823    0.0000 H   0  0  0  0  0  0  0  0  0  0  0  0
    6.6457    1.7598    0.0000 H   0  0  0  0  0  0  0  0  0  0  0  0
    6.1681    2.4952    0.0000 H   0  0  0  0  0  0  0  0  0  0  0  0
    4.0039    1.9329    0.0000 H   0  0  0  0  0  0  0  0  0  0  0  0
    3.2686    1.4553    0.0000 H   0  0  0  0  0  0  0  0  0  0  0  0
    3.7461    0.7200    0.0000 H   0  0  0  0  0  0  0  0  0  0  0  0
    5.7024    0.3042    0.0000 H   0  0  0  0  0  0  0  0  0  0  0  0
    6.4378    0.7817    0.0000 H   0  0  0  0  0  0  0  0  0  0  0  0
    5.9602    1.5170    0.0000 H   0  0  0  0  0  0  0  0  0  0  0  0
    7.6837   -3.0748    0.0000 H   0  0  0  0  0  0  0  0  0  0  0  0
    6.8193   -0.4144    0.0000 H   0  0  0  0  0  0  0  0  0  0  0  0
    9.0824   -2.0586    0.0000 H   0  0  0  0  0  0  0  0  0  0  0  0
  1  5  1  0  0  0  0
  1  8  1  0  0  0  0
  1 11  1  0  0  0  0
  1 12  1  0  0  0  0
  2  3  1  0  0  0  0
  2  9  1  0  0  0  0
  2 21  1  0  0  0  0
  2 22  1  0  0  0  0
  3 17  1  0  0  0  0
  4 17  2  0  0  0  0
  5 10  1  0  0  0  0
  5 26  1  0  0  0  0
  6 23  1  0  0  0  0
  6 25  1  0  0  0  0
  6 60  1  0  0  0  0
  7 24  1  0  0  0  0
  7 25  2  0  0  0  0
  8 13  1  0  0  0  0
  8 14  1  0  0  0  0
  8 15  1  0  0  0  0
  9 18  1  0  0  0  0
  9 19  1  0  0  0  0
  9 20  1  0  0  0  0
 10 16  1  0  0  0  0
 10 17  1  0  0  0  0
 10 27  1  0  0  0  0
 11 28  1  0  0  0  0
 11 29  1  0  0  0  0
 11 30  1  0  0  0  0
 12 31  1  0  0  0  0
 12 32  1  0  0  0  0
 12 33  1  0  0  0  0
 13 34  1  0  0  0  0
 13 35  1  0  0  0  0
 13 36  1  0  0  0  0
 14 37  1  0  0  0  0
 14 38  1  0  0  0  0
 14 39  1  0  0  0  0
 15 40  1  0  0  0  0
 15 41  1  0  0  0  0
 15 42  1  0  0  0  0
 16 23  1  0  0  0  0
 16 43  1  0  0  0  0
 16 44  1  0  0  0  0
 18 45  1  0  0  0  0
 18 46  1  0  0  0  0
 18 47  1  0  0  0  0
 19 48  1  0  0  0  0
 19 49  1  0  0  0  0
 19 50  1  0  0  0  0
 20 51  1  0  0  0  0
 20 52  1  0  0  0  0
 20 53  1  0  0  0  0
 21 54  1  0  0  0  0
 21 55  1  0  0  0  0
 21 56  1  0  0  0  0
 22 57  1  0  0  0  0
 22 58  1  0  0  0  0
 22 59  1  0  0  0  0
 23 24  2  0  0  0  0
 24 61  1  0  0  0  0
 25 62  1  0  0  0  0
M  END
> <PUBCHEM_COMPOUND_CID>
528059
> <PUBCHEM_COMPOUND_CANONICALIZED>
1
> <PUBCHEM_CACTVS_COMPLEXITY>
468
> <PUBCHEM_CACTVS_HBOND_ACCEPTOR>
4
> <PUBCHEM_CACTVS_HBOND_DONOR>
2
> <PUBCHEM_CACTVS_ROTATABLE_BOND>
9
> <PUBCHEM_CACTVS_SUBSKEYS>
AAADcfB7MAwAAAAAAAAAAAAAAAAAAWAAAAAAAAAAAAAAAAABgAAAHhARAEAADCjBtgRvmBbJkAGoART3bAAAgC2xEqABUYG4cAiCaBJA2QGUAAAMkAJAQCC8EQIAAAAAAAAAAAAAAAAAAAAAAAAAAAAAAA==
> <PUBCHEM_IUPAC_OPENEYE_NAME>
[tert-butyl(dimethyl)silyl] 2-[[tert-butyl(dimethyl)silyl]amino]-3-(1H-imidazol-5-yl)propanoate
> <PUBCHEM_IUPAC_CAS_NAME>
2-[[tert-butyl(dimethyl)silyl]amino]-3-(1H-imidazol-5-yl)propanoic acid [tert-butyl(dimethyl)silyl] ester
> <PUBCHEM_IUPAC_NAME_MARKUP>
[<I>tert</I>-butyl(dimethyl)silyl] 2-[[<I>tert</I>-butyl(dimethyl)silyl]amino]-3-(1<I>H</I>-imidazol-5-yl)propanoate
> <PUBCHEM_IUPAC_NAME>
[tert-butyl(dimethyl)silyl] 2-[[tert-butyl(dimethyl)silyl]amino]-3-(1H-imidazol-5-yl)propanoate
> <PUBCHEM_IUPAC_SYSTEMATIC_NAME>
[tert-butyl(dimethyl)silyl] 2-[[tert-butyl(dimethyl)silyl]amino]-3-(1H-imidazol-5-yl)propanoate
> <PUBCHEM_IUPAC_TRADITIONAL_NAME>
2-[[tert-butyl(dimethyl)silyl]amino]-3-(1H-imidazol-5-yl)propionic acid [tert-butyl(dimethyl)silyl] ester
> <PUBCHEM_IUPAC_INCHI>
InChI=1S/C18H37N3O2Si2/c1-17(2,3)24(7,8)21-15(11-14-12-19-13-20-14)16(22)23-25(9,10)18(4,5)6/h12-13,15,21H,11H2,1-10H3,(H,19,20)
> <PUBCHEM_IUPAC_INCHIKEY>
MHJBZSJTADVFRO-UHFFFAOYSA-N
> <PUBCHEM_EXACT_MASS>
383.24243050
> <PUBCHEM_MOLECULAR_FORMULA>
C18H37N3O2Si2
> <PUBCHEM_MOLECULAR_WEIGHT>
383.7
> <PUBCHEM_OPENEYE_CAN_SMILES>
CC(C)(C)[Si](C)(C)NC(CC1=CN=CN1)C(=O)O[Si](C)(C)C(C)(C)C
> <PUBCHEM_OPENEYE_ISO_SMILES>
CC(C)(C)[Si](C)(C)NC(CC1=CN=CN1)C(=O)O[Si](C)(C)C(C)(C)C
> <PUBCHEM_CACTVS_TPSA>
67
> <PUBCHEM_MONOISOTOPIC_WEIGHT>
383.24243050
> <PUBCHEM_TOTAL_CHARGE>
0
> <PUBCHEM_HEAVY_ATOM_COUNT>
25
> <PUBCHEM_ATOM_DEF_STEREO_COUNT>
0
> <PUBCHEM_ATOM_UDEF_STEREO_COUNT>
1
> <PUBCHEM_BOND_DEF_STEREO_COUNT>
0
> <PUBCHEM_BOND_UDEF_STEREO_COUNT>
0
> <PUBCHEM_ISOTOPIC_ATOM_COUNT>
0
> <PUBCHEM_COMPONENT_COUNT>
1
> <PUBCHEM_CACTVS_TAUTO_COUNT>
-1
> <PUBCHEM_COORDINATE_TYPE>
1
5
255
> <PUBCHEM_BONDANNOTATIONS>
10  16  3
23  24  8
6  23  8
6  25  8
7  24  8
7  25  8
$$$$
