528044
  -OEChem-10302200292D
 96 99  0     1  0  0  0  0  0999 V2000
    6.5232    1.5253    0.0000 Si  0  0  0  0  0  0  0  0  0  0  0  0
   11.6673    2.4373    0.0000 Si  0  0  0  0  0  0  0  0  0  0  0  0
    2.8641   -2.5237    0.0000 Si  0  0  0  0  0  0  0  0  0  0  0  0
    6.5232    0.5253    0.0000 O   0  0  0  0  0  0  0  0  0  0  0  0
   11.3567    1.4868    0.0000 O   0  0  0  0  0  0  0  0  0  0  0  0
    3.7282   -3.0270    0.0000 O   0  0  0  0  0  0  0  0  0  0  0  0
    7.3892   -0.9747    0.0000 C   0  0  3  0  0  0  0  0  0  0  0  0
    8.2552   -1.4747    0.0000 C   0  0  3  0  0  0  0  0  0  0  0  0
    9.1213   -0.9747    0.0000 C   0  0  3  0  0  0  0  0  0  0  0  0
    9.1213    0.0253    0.0000 C   0  0  3  0  0  0  0  0  0  0  0  0
    6.4792   -1.4816    0.0000 C   0  0  3  0  0  0  0  0  0  0  0  0
    7.3892    0.0253    0.0000 C   0  0  3  0  0  0  0  0  0  0  0  0
   10.0675    0.3300    0.0000 C   0  0  3  0  0  0  0  0  0  0  0  0
    8.2552    0.5253    0.0000 C   0  0  0  0  0  0  0  0  0  0  0  0
    6.4712   -2.5232    0.0000 C   0  0  3  0  0  0  0  0  0  0  0  0
   10.0675   -1.2794    0.0000 C   0  0  0  0  0  0  0  0  0  0  0  0
    8.2713   -2.5162    0.0000 C   0  0  0  0  0  0  0  0  0  0  0  0
   10.6511   -0.4747    0.0000 C   0  0  0  0  0  0  0  0  0  0  0  0
    7.3733   -3.0440    0.0000 C   0  0  0  0  0  0  0  0  0  0  0  0
    5.5524   -0.9175    0.0000 C   0  0  0  0  0  0  0  0  0  0  0  0
    9.1213    1.0253    0.0000 C   0  0  0  0  0  0  0  0  0  0  0  0
    5.5358   -3.0729    0.0000 C   0  0  0  0  0  0  0  0  0  0  0  0
    6.4869   -0.4816    0.0000 C   0  0  0  0  0  0  0  0  0  0  0  0
   10.3781    1.2805    0.0000 C   0  0  3  0  0  0  0  0  0  0  0  0
    4.6045   -1.4454    0.0000 C   0  0  0  0  0  0  0  0  0  0  0  0
    4.5961   -2.5304    0.0000 C   0  0  3  0  0  0  0  0  0  0  0  0
    9.7103    2.0248    0.0000 C   0  0  0  0  0  0  0  0  0  0  0  0
    6.5232    2.5253    0.0000 C   0  0  0  0  0  0  0  0  0  0  0  0
    5.5232    1.5253    0.0000 C   0  0  0  0  0  0  0  0  0  0  0  0
    7.5232    1.5253    0.0000 C   0  0  0  0  0  0  0  0  0  0  0  0
   11.9780    3.3878    0.0000 C   0  0  0  0  0  0  0  0  0  0  0  0
   12.6178    2.1266    0.0000 C   0  0  0  0  0  0  0  0  0  0  0  0
   10.7168    2.7479    0.0000 C   0  0  0  0  0  0  0  0  0  0  0  0
    2.0000   -2.0204    0.0000 C   0  0  0  0  0  0  0  0  0  0  0  0
    2.3608   -3.3878    0.0000 C   0  0  0  0  0  0  0  0  0  0  0  0
    3.3674   -1.6596    0.0000 C   0  0  0  0  0  0  0  0  0  0  0  0
    7.9262   -0.6647    0.0000 H   0  0  0  0  0  0  0  0  0  0  0  0
    8.7945   -1.7806    0.0000 H   0  0  0  0  0  0  0  0  0  0  0  0
    9.1869   -1.5912    0.0000 H   0  0  0  0  0  0  0  0  0  0  0  0
    7.3892    0.6453    0.0000 H   0  0  0  0  0  0  0  0  0  0  0  0
   10.6800    0.4262    0.0000 H   0  0  0  0  0  0  0  0  0  0  0  0
    8.6538    1.0002    0.0000 H   0  0  0  0  0  0  0  0  0  0  0  0
    7.8567    1.0002    0.0000 H   0  0  0  0  0  0  0  0  0  0  0  0
    6.4736   -3.1432    0.0000 H   0  0  0  0  0  0  0  0  0  0  0  0
    9.8164   -1.8464    0.0000 H   0  0  0  0  0  0  0  0  0  0  0  0
   10.6049   -1.5887    0.0000 H   0  0  0  0  0  0  0  0  0  0  0  0
    8.4893   -3.0966    0.0000 H   0  0  0  0  0  0  0  0  0  0  0  0
    8.8804   -2.4007    0.0000 H   0  0  0  0  0  0  0  0  0  0  0  0
   11.1120   -0.8894    0.0000 H   0  0  0  0  0  0  0  0  0  0  0  0
   11.1120   -0.0600    0.0000 H   0  0  0  0  0  0  0  0  0  0  0  0
    6.9760   -3.5199    0.0000 H   0  0  0  0  0  0  0  0  0  0  0  0
    7.7742   -3.5169    0.0000 H   0  0  0  0  0  0  0  0  0  0  0  0
    5.9606   -0.4508    0.0000 H   0  0  0  0  0  0  0  0  0  0  0  0
    5.1625   -0.4354    0.0000 H   0  0  0  0  0  0  0  0  0  0  0  0
    9.7413    1.0253    0.0000 H   0  0  0  0  0  0  0  0  0  0  0  0
    9.1213    1.6453    0.0000 H   0  0  0  0  0  0  0  0  0  0  0  0
    8.5013    1.0253    0.0000 H   0  0  0  0  0  0  0  0  0  0  0  0
    5.1385   -3.5488    0.0000 H   0  0  0  0  0  0  0  0  0  0  0  0
    5.9367   -3.5458    0.0000 H   0  0  0  0  0  0  0  0  0  0  0  0
    7.1069   -0.4864    0.0000 H   0  0  0  0  0  0  0  0  0  0  0  0
    6.4917    0.1384    0.0000 H   0  0  0  0  0  0  0  0  0  0  0  0
    5.8669   -0.4768    0.0000 H   0  0  0  0  0  0  0  0  0  0  0  0
   10.5708    1.8699    0.0000 H   0  0  0  0  0  0  0  0  0  0  0  0
    4.3999   -0.8601    0.0000 H   0  0  0  0  0  0  0  0  0  0  0  0
    3.9928   -1.5468    0.0000 H   0  0  0  0  0  0  0  0  0  0  0  0
    4.5949   -3.1504    0.0000 H   0  0  0  0  0  0  0  0  0  0  0  0
   10.1718    2.4389    0.0000 H   0  0  0  0  0  0  0  0  0  0  0  0
    9.2962    2.4863    0.0000 H   0  0  0  0  0  0  0  0  0  0  0  0
    9.2488    1.6108    0.0000 H   0  0  0  0  0  0  0  0  0  0  0  0
    7.1432    2.5253    0.0000 H   0  0  0  0  0  0  0  0  0  0  0  0
    6.5232    3.1453    0.0000 H   0  0  0  0  0  0  0  0  0  0  0  0
    5.9032    2.5253    0.0000 H   0  0  0  0  0  0  0  0  0  0  0  0
    5.5232    2.1453    0.0000 H   0  0  0  0  0  0  0  0  0  0  0  0
    4.9032    1.5253    0.0000 H   0  0  0  0  0  0  0  0  0  0  0  0
    5.5232    0.9053    0.0000 H   0  0  0  0  0  0  0  0  0  0  0  0
    7.5232    0.9053    0.0000 H   0  0  0  0  0  0  0  0  0  0  0  0
    8.1432    1.5253    0.0000 H   0  0  0  0  0  0  0  0  0  0  0  0
    7.5232    2.1453    0.0000 H   0  0  0  0  0  0  0  0  0  0  0  0
   12.5673    3.1952    0.0000 H   0  0  0  0  0  0  0  0  0  0  0  0
   12.1706    3.9771    0.0000 H   0  0  0  0  0  0  0  0  0  0  0  0
   11.3887    3.5804    0.0000 H   0  0  0  0  0  0  0  0  0  0  0  0
   12.4252    1.5373    0.0000 H   0  0  0  0  0  0  0  0  0  0  0  0
   13.2072    1.9340    0.0000 H   0  0  0  0  0  0  0  0  0  0  0  0
   12.8104    2.7159    0.0000 H   0  0  0  0  0  0  0  0  0  0  0  0
   10.9094    3.3373    0.0000 H   0  0  0  0  0  0  0  0  0  0  0  0
   10.1275    2.9406    0.0000 H   0  0  0  0  0  0  0  0  0  0  0  0
   10.5242    2.1586    0.0000 H   0  0  0  0  0  0  0  0  0  0  0  0
    2.3121   -1.4846    0.0000 H   0  0  0  0  0  0  0  0  0  0  0  0
    1.4643   -1.7083    0.0000 H   0  0  0  0  0  0  0  0  0  0  0  0
    1.6879   -2.5561    0.0000 H   0  0  0  0  0  0  0  0  0  0  0  0
    1.8250   -3.0757    0.0000 H   0  0  0  0  0  0  0  0  0  0  0  0
    2.0487   -3.9235    0.0000 H   0  0  0  0  0  0  0  0  0  0  0  0
    2.8965   -3.6999    0.0000 H   0  0  0  0  0  0  0  0  0  0  0  0
    3.9032   -1.9717    0.0000 H   0  0  0  0  0  0  0  0  0  0  0  0
    3.6795   -1.1239    0.0000 H   0  0  0  0  0  0  0  0  0  0  0  0
    2.8317   -1.3476    0.0000 H   0  0  0  0  0  0  0  0  0  0  0  0
  1  4  1  0  0  0  0
  1 28  1  0  0  0  0
  1 29  1  0  0  0  0
  1 30  1  0  0  0  0
  2  5  1  0  0  0  0
  2 31  1  0  0  0  0
  2 32  1  0  0  0  0
  2 33  1  0  0  0  0
  3  6  1  0  0  0  0
  3 34  1  0  0  0  0
  3 35  1  0  0  0  0
  3 36  1  0  0  0  0
  4 12  1  0  0  0  0
  5 24  1  0  0  0  0
  6 26  1  0  0  0  0
  7  8  1  0  0  0  0
  7 11  1  0  0  0  0
  7 12  1  0  0  0  0
  7 37  1  0  0  0  0
  8  9  1  0  0  0  0
  8 17  1  0  0  0  0
  8 38  1  0  0  0  0
  9 10  1  0  0  0  0
  9 16  1  0  0  0  0
  9 39  1  0  0  0  0
 10 13  1  0  0  0  0
 10 14  1  0  0  0  0
 10 21  1  0  0  0  0
 11 15  1  0  0  0  0
 11 20  1  0  0  0  0
 11 23  1  0  0  0  0
 12 14  1  0  0  0  0
 12 40  1  0  0  0  0
 13 18  1  0  0  0  0
 13 24  1  0  0  0  0
 13 41  1  0  0  0  0
 14 42  1  0  0  0  0
 14 43  1  0  0  0  0
 15 19  1  0  0  0  0
 15 22  1  0  0  0  0
 15 44  1  0  0  0  0
 16 18  1  0  0  0  0
 16 45  1  0  0  0  0
 16 46  1  0  0  0  0
 17 19  1  0  0  0  0
 17 47  1  0  0  0  0
 17 48  1  0  0  0  0
 18 49  1  0  0  0  0
 18 50  1  0  0  0  0
 19 51  1  0  0  0  0
 19 52  1  0  0  0  0
 20 25  1  0  0  0  0
 20 53  1  0  0  0  0
 20 54  1  0  0  0  0
 21 55  1  0  0  0  0
 21 56  1  0  0  0  0
 21 57  1  0  0  0  0
 22 26  1  0  0  0  0
 22 58  1  0  0  0  0
 22 59  1  0  0  0  0
 23 60  1  0  0  0  0
 23 61  1  0  0  0  0
 23 62  1  0  0  0  0
 24 27  1  0  0  0  0
 24 63  1  0  0  0  0
 25 26  1  0  0  0  0
 25 64  1  0  0  0  0
 25 65  1  0  0  0  0
 26 66  1  0  0  0  0
 27 67  1  0  0  0  0
 27 68  1  0  0  0  0
 27 69  1  0  0  0  0
 28 70  1  0  0  0  0
 28 71  1  0  0  0  0
 28 72  1  0  0  0  0
 29 73  1  0  0  0  0
 29 74  1  0  0  0  0
 29 75  1  0  0  0  0
 30 76  1  0  0  0  0
 30 77  1  0  0  0  0
 30 78  1  0  0  0  0
 31 79  1  0  0  0  0
 31 80  1  0  0  0  0
 31 81  1  0  0  0  0
 32 82  1  0  0  0  0
 32 83  1  0  0  0  0
 32 84  1  0  0  0  0
 33 85  1  0  0  0  0
 33 86  1  0  0  0  0
 33 87  1  0  0  0  0
 34 88  1  0  0  0  0
 34 89  1  0  0  0  0
 34 90  1  0  0  0  0
 35 91  1  0  0  0  0
 35 92  1  0  0  0  0
 35 93  1  0  0  0  0
 36 94  1  0  0  0  0
 36 95  1  0  0  0  0
 36 96  1  0  0  0  0
M  END
> <PUBCHEM_COMPOUND_CID>
528044
> <PUBCHEM_COMPOUND_CANONICALIZED>
1
> <PUBCHEM_CACTVS_COMPLEXITY>
784
> <PUBCHEM_CACTVS_HBOND_ACCEPTOR>
3
> <PUBCHEM_CACTVS_HBOND_DONOR>
0
> <PUBCHEM_CACTVS_ROTATABLE_BOND>
7
> <PUBCHEM_CACTVS_SUBSKEYS>
AAADcfB4MAwAAAAAAAAAAAAAAAAAAYAAAAAwYMAAAAAAAGDAAAAAGhAAAEAADxSggAJCAAAAAAEAAAAAAAAAAAAAAAAAAAAAAAAAAAIAAAAAAAAEAAAAAAGA4PQPgAAAAAAAAADAAAYAADAAAQAACAAAAA==
> <PUBCHEM_IUPAC_OPENEYE_NAME>
1-[10,13-dimethyl-3,11-bis(trimethylsilyloxy)-2,3,4,5,6,7,8,9,11,12,14,15,16,17-tetradecahydro-1H-cyclopenta[a]phenanthren-17-yl]ethoxy-trimethyl-silane
> <PUBCHEM_IUPAC_CAS_NAME>
1-[10,13-dimethyl-3,11-bis(trimethylsilyloxy)-2,3,4,5,6,7,8,9,11,12,14,15,16,17-tetradecahydro-1H-cyclopenta[a]phenanthren-17-yl]ethoxy-trimethylsilane
> <PUBCHEM_IUPAC_NAME_MARKUP>
1-[10,13-dimethyl-3,11-bis(trimethylsilyloxy)-2,3,4,5,6,7,8,9,11,12,14,15,16,17-tetradecahydro-1<I>H</I>-cyclopenta[a]phenanthren-17-yl]ethoxy-trimethylsilane
> <PUBCHEM_IUPAC_NAME>
1-[10,13-dimethyl-3,11-bis(trimethylsilyloxy)-2,3,4,5,6,7,8,9,11,12,14,15,16,17-tetradecahydro-1H-cyclopenta[a]phenanthren-17-yl]ethoxy-trimethylsilane
> <PUBCHEM_IUPAC_SYSTEMATIC_NAME>
1-[10,13-dimethyl-3,11-bis(trimethylsilyloxy)-2,3,4,5,6,7,8,9,11,12,14,15,16,17-tetradecahydro-1H-cyclopenta[a]phenanthren-17-yl]ethoxy-trimethyl-silane
> <PUBCHEM_IUPAC_TRADITIONAL_NAME>
1-[10,13-dimethyl-3,11-bis(trimethylsilyloxy)-2,3,4,5,6,7,8,9,11,12,14,15,16,17-tetradecahydro-1H-cyclopenta[a]phenanthren-17-yl]ethoxy-trimethyl-silane
> <PUBCHEM_IUPAC_INCHI>
InChI=1S/C30H60O3Si3/c1-21(31-34(4,5)6)25-15-16-26-24-14-13-22-19-23(32-35(7,8)9)17-18-29(22,2)28(24)27(20-30(25,26)3)33-36(10,11)12/h21-28H,13-20H2,1-12H3
> <PUBCHEM_IUPAC_INCHIKEY>
NWGHCYXPXWBNLK-UHFFFAOYSA-N
> <PUBCHEM_EXACT_MASS>
552.38502537
> <PUBCHEM_MOLECULAR_FORMULA>
C30H60O3Si3
> <PUBCHEM_MOLECULAR_WEIGHT>
553.0
> <PUBCHEM_OPENEYE_CAN_SMILES>
CC(C1CCC2C1(CC(C3C2CCC4C3(CCC(C4)O[Si](C)(C)C)C)O[Si](C)(C)C)C)O[Si](C)(C)C
> <PUBCHEM_OPENEYE_ISO_SMILES>
CC(C1CCC2C1(CC(C3C2CCC4C3(CCC(C4)O[Si](C)(C)C)C)O[Si](C)(C)C)C)O[Si](C)(C)C
> <PUBCHEM_CACTVS_TPSA>
27.7
> <PUBCHEM_MONOISOTOPIC_WEIGHT>
552.38502537
> <PUBCHEM_TOTAL_CHARGE>
0
> <PUBCHEM_HEAVY_ATOM_COUNT>
36
> <PUBCHEM_ATOM_DEF_STEREO_COUNT>
0
> <PUBCHEM_ATOM_UDEF_STEREO_COUNT>
10
> <PUBCHEM_BOND_DEF_STEREO_COUNT>
0
> <PUBCHEM_BOND_UDEF_STEREO_COUNT>
0
> <PUBCHEM_ISOTOPIC_ATOM_COUNT>
0
> <PUBCHEM_COMPONENT_COUNT>
1
> <PUBCHEM_CACTVS_TAUTO_COUNT>
-1
> <PUBCHEM_COORDINATE_TYPE>
1
5
255
> <PUBCHEM_BONDANNOTATIONS>
10  21  3
11  23  3
13  18  3
15  19  3
24  27  3
12  4  3
26  6  3
7  12  3
8  17  3
9  16  3
$$$$
