528067
  -OEChem-10302200292D
 87 87  0     1  0  0  0  0  0999 V2000
    5.4641   -3.2500    0.0000 Si  0  0  0  0  0  0  0  0  0  0  0  0
    3.7320   -1.2500    0.0000 Si  0  0  0  0  0  0  0  0  0  0  0  0
    8.0622    3.2500    0.0000 Si  0  0  0  0  0  0  0  0  0  0  0  0
    4.5981   -1.7500    0.0000 O   0  0  0  0  0  0  0  0  0  0  0  0
    7.1962    2.7500    0.0000 O   0  0  0  0  0  0  0  0  0  0  0  0
    5.4641   -0.2500    0.0000 O   0  0  0  0  0  0  0  0  0  0  0  0
    6.3301   -2.7500    0.0000 N   0  0  0  0  0  0  0  0  0  0  0  0
    4.5981   -3.7500    0.0000 C   0  0  0  0  0  0  0  0  0  0  0  0
    6.3301   -1.7500    0.0000 C   0  0  3  0  0  0  0  0  0  0  0  0
    5.9641   -4.1160    0.0000 C   0  0  0  0  0  0  0  0  0  0  0  0
    4.9641   -2.3840    0.0000 C   0  0  0  0  0  0  0  0  0  0  0  0
    2.8660   -0.7500    0.0000 C   0  0  0  0  0  0  0  0  0  0  0  0
    3.7320   -4.2500    0.0000 C   0  0  0  0  0  0  0  0  0  0  0  0
    5.0981   -4.6160    0.0000 C   0  0  0  0  0  0  0  0  0  0  0  0
    4.0981   -2.8840    0.0000 C   0  0  0  0  0  0  0  0  0  0  0  0
    7.1962   -1.2500    0.0000 C   0  0  0  0  0  0  0  0  0  0  0  0
    8.9282    3.7500    0.0000 C   0  0  0  0  0  0  0  0  0  0  0  0
    5.4641   -1.2500    0.0000 C   0  0  0  0  0  0  0  0  0  0  0  0
    3.2320   -2.1160    0.0000 C   0  0  0  0  0  0  0  0  0  0  0  0
    4.2320   -0.3840    0.0000 C   0  0  0  0  0  0  0  0  0  0  0  0
    2.0000   -0.2500    0.0000 C   0  0  0  0  0  0  0  0  0  0  0  0
    2.3660   -1.6160    0.0000 C   0  0  0  0  0  0  0  0  0  0  0  0
    3.3660    0.1160    0.0000 C   0  0  0  0  0  0  0  0  0  0  0  0
    7.1962   -0.2500    0.0000 C   0  0  0  0  0  0  0  0  0  0  0  0
    9.7942    4.2500    0.0000 C   0  0  0  0  0  0  0  0  0  0  0  0
    8.4282    4.6160    0.0000 C   0  0  0  0  0  0  0  0  0  0  0  0
    9.4282    2.8840    0.0000 C   0  0  0  0  0  0  0  0  0  0  0  0
    7.5622    4.1160    0.0000 C   0  0  0  0  0  0  0  0  0  0  0  0
    8.5622    2.3840    0.0000 C   0  0  0  0  0  0  0  0  0  0  0  0
    7.1962    1.7500    0.0000 C   0  0  0  0  0  0  0  0  0  0  0  0
    6.3301    0.2500    0.0000 C   0  0  0  0  0  0  0  0  0  0  0  0
    8.0622    0.2500    0.0000 C   0  0  0  0  0  0  0  0  0  0  0  0
    6.3301    1.2500    0.0000 C   0  0  0  0  0  0  0  0  0  0  0  0
    8.0622    1.2500    0.0000 C   0  0  0  0  0  0  0  0  0  0  0  0
    6.8671   -3.0600    0.0000 H   0  0  0  0  0  0  0  0  0  0  0  0
    6.8671   -2.0600    0.0000 H   0  0  0  0  0  0  0  0  0  0  0  0
    5.4272   -4.4260    0.0000 H   0  0  0  0  0  0  0  0  0  0  0  0
    6.2741   -4.6530    0.0000 H   0  0  0  0  0  0  0  0  0  0  0  0
    6.5010   -3.8060    0.0000 H   0  0  0  0  0  0  0  0  0  0  0  0
    5.5010   -2.0740    0.0000 H   0  0  0  0  0  0  0  0  0  0  0  0
    4.6541   -1.8470    0.0000 H   0  0  0  0  0  0  0  0  0  0  0  0
    4.4272   -2.6940    0.0000 H   0  0  0  0  0  0  0  0  0  0  0  0
    3.4220   -3.7131    0.0000 H   0  0  0  0  0  0  0  0  0  0  0  0
    3.1951   -4.5600    0.0000 H   0  0  0  0  0  0  0  0  0  0  0  0
    4.0420   -4.7869    0.0000 H   0  0  0  0  0  0  0  0  0  0  0  0
    4.5611   -4.9260    0.0000 H   0  0  0  0  0  0  0  0  0  0  0  0
    5.4081   -5.1530    0.0000 H   0  0  0  0  0  0  0  0  0  0  0  0
    5.6350   -4.3060    0.0000 H   0  0  0  0  0  0  0  0  0  0  0  0
    4.6350   -2.5740    0.0000 H   0  0  0  0  0  0  0  0  0  0  0  0
    3.7881   -2.3470    0.0000 H   0  0  0  0  0  0  0  0  0  0  0  0
    3.5611   -3.1940    0.0000 H   0  0  0  0  0  0  0  0  0  0  0  0
    7.4082   -1.8326    0.0000 H   0  0  0  0  0  0  0  0  0  0  0  0
    7.8067   -1.1423    0.0000 H   0  0  0  0  0  0  0  0  0  0  0  0
    2.6951   -1.8060    0.0000 H   0  0  0  0  0  0  0  0  0  0  0  0
    2.9220   -2.6530    0.0000 H   0  0  0  0  0  0  0  0  0  0  0  0
    3.7690   -2.4260    0.0000 H   0  0  0  0  0  0  0  0  0  0  0  0
    4.7690   -0.6940    0.0000 H   0  0  0  0  0  0  0  0  0  0  0  0
    4.5420    0.1530    0.0000 H   0  0  0  0  0  0  0  0  0  0  0  0
    3.6951   -0.0740    0.0000 H   0  0  0  0  0  0  0  0  0  0  0  0
    2.3100    0.2869    0.0000 H   0  0  0  0  0  0  0  0  0  0  0  0
    1.4631    0.0600    0.0000 H   0  0  0  0  0  0  0  0  0  0  0  0
    1.6900   -0.7869    0.0000 H   0  0  0  0  0  0  0  0  0  0  0  0
    1.8291   -1.3060    0.0000 H   0  0  0  0  0  0  0  0  0  0  0  0
    2.0560   -2.1530    0.0000 H   0  0  0  0  0  0  0  0  0  0  0  0
    2.9030   -1.9260    0.0000 H   0  0  0  0  0  0  0  0  0  0  0  0
    3.9030   -0.1940    0.0000 H   0  0  0  0  0  0  0  0  0  0  0  0
    3.6760    0.6530    0.0000 H   0  0  0  0  0  0  0  0  0  0  0  0
    2.8291    0.4260    0.0000 H   0  0  0  0  0  0  0  0  0  0  0  0
   10.1042    3.7131    0.0000 H   0  0  0  0  0  0  0  0  0  0  0  0
   10.3312    4.5600    0.0000 H   0  0  0  0  0  0  0  0  0  0  0  0
    9.4842    4.7869    0.0000 H   0  0  0  0  0  0  0  0  0  0  0  0
    8.9651    4.9260    0.0000 H   0  0  0  0  0  0  0  0  0  0  0  0
    8.1182    5.1530    0.0000 H   0  0  0  0  0  0  0  0  0  0  0  0
    7.8913    4.3060    0.0000 H   0  0  0  0  0  0  0  0  0  0  0  0
    8.8913    2.5740    0.0000 H   0  0  0  0  0  0  0  0  0  0  0  0
    9.7382    2.3470    0.0000 H   0  0  0  0  0  0  0  0  0  0  0  0
    9.9651    3.1940    0.0000 H   0  0  0  0  0  0  0  0  0  0  0  0
    8.0991    4.4260    0.0000 H   0  0  0  0  0  0  0  0  0  0  0  0
    7.2522    4.6530    0.0000 H   0  0  0  0  0  0  0  0  0  0  0  0
    7.0252    3.8060    0.0000 H   0  0  0  0  0  0  0  0  0  0  0  0
    8.0252    2.0740    0.0000 H   0  0  0  0  0  0  0  0  0  0  0  0
    8.8722    1.8470    0.0000 H   0  0  0  0  0  0  0  0  0  0  0  0
    9.0991    2.6940    0.0000 H   0  0  0  0  0  0  0  0  0  0  0  0
    5.7932   -0.0600    0.0000 H   0  0  0  0  0  0  0  0  0  0  0  0
    8.5991   -0.0600    0.0000 H   0  0  0  0  0  0  0  0  0  0  0  0
    5.7932    1.5600    0.0000 H   0  0  0  0  0  0  0  0  0  0  0  0
    8.5991    1.5600    0.0000 H   0  0  0  0  0  0  0  0  0  0  0  0
  1  7  1  0  0  0  0
  1  8  1  0  0  0  0
  1 10  1  0  0  0  0
  1 11  1  0  0  0  0
  2  4  1  0  0  0  0
  2 12  1  0  0  0  0
  2 19  1  0  0  0  0
  2 20  1  0  0  0  0
  3  5  1  0  0  0  0
  3 17  1  0  0  0  0
  3 28  1  0  0  0  0
  3 29  1  0  0  0  0
  4 18  1  0  0  0  0
  5 30  1  0  0  0  0
  6 18  2  0  0  0  0
  7  9  1  0  0  0  0
  7 35  1  0  0  0  0
  8 13  1  0  0  0  0
  8 14  1  0  0  0  0
  8 15  1  0  0  0  0
  9 16  1  0  0  0  0
  9 18  1  0  0  0  0
  9 36  1  0  0  0  0
 10 37  1  0  0  0  0
 10 38  1  0  0  0  0
 10 39  1  0  0  0  0
 11 40  1  0  0  0  0
 11 41  1  0  0  0  0
 11 42  1  0  0  0  0
 12 21  1  0  0  0  0
 12 22  1  0  0  0  0
 12 23  1  0  0  0  0
 13 43  1  0  0  0  0
 13 44  1  0  0  0  0
 13 45  1  0  0  0  0
 14 46  1  0  0  0  0
 14 47  1  0  0  0  0
 14 48  1  0  0  0  0
 15 49  1  0  0  0  0
 15 50  1  0  0  0  0
 15 51  1  0  0  0  0
 16 24  1  0  0  0  0
 16 52  1  0  0  0  0
 16 53  1  0  0  0  0
 17 25  1  0  0  0  0
 17 26  1  0  0  0  0
 17 27  1  0  0  0  0
 19 54  1  0  0  0  0
 19 55  1  0  0  0  0
 19 56  1  0  0  0  0
 20 57  1  0  0  0  0
 20 58  1  0  0  0  0
 20 59  1  0  0  0  0
 21 60  1  0  0  0  0
 21 61  1  0  0  0  0
 21 62  1  0  0  0  0
 22 63  1  0  0  0  0
 22 64  1  0  0  0  0
 22 65  1  0  0  0  0
 23 66  1  0  0  0  0
 23 67  1  0  0  0  0
 23 68  1  0  0  0  0
 24 31  2  0  0  0  0
 24 32  1  0  0  0  0
 25 69  1  0  0  0  0
 25 70  1  0  0  0  0
 25 71  1  0  0  0  0
 26 72  1  0  0  0  0
 26 73  1  0  0  0  0
 26 74  1  0  0  0  0
 27 75  1  0  0  0  0
 27 76  1  0  0  0  0
 27 77  1  0  0  0  0
 28 78  1  0  0  0  0
 28 79  1  0  0  0  0
 28 80  1  0  0  0  0
 29 81  1  0  0  0  0
 29 82  1  0  0  0  0
 29 83  1  0  0  0  0
 30 33  2  0  0  0  0
 30 34  1  0  0  0  0
 31 33  1  0  0  0  0
 31 84  1  0  0  0  0
 32 34  2  0  0  0  0
 32 85  1  0  0  0  0
 33 86  1  0  0  0  0
 34 87  1  0  0  0  0
M  END
> <PUBCHEM_COMPOUND_CID>
528067
> <PUBCHEM_COMPOUND_CANONICALIZED>
1
> <PUBCHEM_CACTVS_COMPLEXITY>
677
> <PUBCHEM_CACTVS_HBOND_ACCEPTOR>
4
> <PUBCHEM_CACTVS_HBOND_DONOR>
1
> <PUBCHEM_CACTVS_ROTATABLE_BOND>
12
> <PUBCHEM_CACTVS_SUBSKEYS>
AAADcfB6MAwAAAAAAAAAAAAAAAAAAAAAAAAwAAAAAAAAAAABAAAAHhARAEAADCzBuARyDoBAAAGIAiDSCAACAAAgIAAIiIGGCIgKJjKAkROAMAAk0BEIiAeYyKCOIAAAAAAAAABAAAAAAAAAAAAAAAAAAA==
> <PUBCHEM_IUPAC_OPENEYE_NAME>
[tert-butyl(dimethyl)silyl] 2-[[tert-butyl(dimethyl)silyl]amino]-3-[4-[tert-butyl(dimethyl)silyl]oxyphenyl]propanoate
> <PUBCHEM_IUPAC_CAS_NAME>
2-[[tert-butyl(dimethyl)silyl]amino]-3-[4-[tert-butyl(dimethyl)silyl]oxyphenyl]propanoic acid [tert-butyl(dimethyl)silyl] ester
> <PUBCHEM_IUPAC_NAME_MARKUP>
[<I>tert</I>-butyl(dimethyl)silyl] 2-[[<I>tert</I>-butyl(dimethyl)silyl]amino]-3-[4-[<I>tert</I>-butyl(dimethyl)silyl]oxyphenyl]propanoate
> <PUBCHEM_IUPAC_NAME>
[tert-butyl(dimethyl)silyl] 2-[[tert-butyl(dimethyl)silyl]amino]-3-[4-[tert-butyl(dimethyl)silyl]oxyphenyl]propanoate
> <PUBCHEM_IUPAC_SYSTEMATIC_NAME>
[tert-butyl(dimethyl)silyl] 2-[[tert-butyl(dimethyl)silyl]amino]-3-[4-[tert-butyl(dimethyl)silyl]oxyphenyl]propanoate
> <PUBCHEM_IUPAC_TRADITIONAL_NAME>
2-[[tert-butyl(dimethyl)silyl]amino]-3-[4-[tert-butyl(dimethyl)silyl]oxyphenyl]propionic acid [tert-butyl(dimethyl)silyl] ester
> <PUBCHEM_IUPAC_INCHI>
InChI=1S/C27H53NO3Si3/c1-25(2,3)32(10,11)28-23(24(29)31-34(14,15)27(7,8)9)20-21-16-18-22(19-17-21)30-33(12,13)26(4,5)6/h16-19,23,28H,20H2,1-15H3
> <PUBCHEM_IUPAC_INCHIKEY>
QIFNZTAFWUSNEI-UHFFFAOYSA-N
> <PUBCHEM_EXACT_MASS>
523.33332416
> <PUBCHEM_MOLECULAR_FORMULA>
C27H53NO3Si3
> <PUBCHEM_MOLECULAR_WEIGHT>
524.0
> <PUBCHEM_OPENEYE_CAN_SMILES>
CC(C)(C)[Si](C)(C)NC(CC1=CC=C(C=C1)O[Si](C)(C)C(C)(C)C)C(=O)O[Si](C)(C)C(C)(C)C
> <PUBCHEM_OPENEYE_ISO_SMILES>
CC(C)(C)[Si](C)(C)NC(CC1=CC=C(C=C1)O[Si](C)(C)C(C)(C)C)C(=O)O[Si](C)(C)C(C)(C)C
> <PUBCHEM_CACTVS_TPSA>
47.6
> <PUBCHEM_MONOISOTOPIC_WEIGHT>
523.33332416
> <PUBCHEM_TOTAL_CHARGE>
0
> <PUBCHEM_HEAVY_ATOM_COUNT>
34
> <PUBCHEM_ATOM_DEF_STEREO_COUNT>
0
> <PUBCHEM_ATOM_UDEF_STEREO_COUNT>
1
> <PUBCHEM_BOND_DEF_STEREO_COUNT>
0
> <PUBCHEM_BOND_UDEF_STEREO_COUNT>
0
> <PUBCHEM_ISOTOPIC_ATOM_COUNT>
0
> <PUBCHEM_COMPONENT_COUNT>
1
> <PUBCHEM_CACTVS_TAUTO_COUNT>
-1
> <PUBCHEM_COORDINATE_TYPE>
1
5
255
> <PUBCHEM_BONDANNOTATIONS>
24  31  8
24  32  8
30  33  8
30  34  8
31  33  8
32  34  8
9  16  3
$$$$
