528061
  -OEChem-10302200292D
 62 61  0     1  0  0  0  0  0999 V2000
    5.4641    1.9330    0.0000 S   0  0  0  0  0  0  0  0  0  0  0  0
    8.0622   -0.5670    0.0000 Si  0  0  0  0  0  0  0  0  0  0  0  0
    3.7320   -1.0670    0.0000 Si  0  0  0  0  0  0  0  0  0  0  0  0
    4.5981   -0.5670    0.0000 O   0  0  0  0  0  0  0  0  0  0  0  0
    5.4641   -2.0670    0.0000 O   0  0  0  0  0  0  0  0  0  0  0  0
    7.1962   -1.0670    0.0000 N   0  0  0  0  0  0  0  0  0  0  0  0
    8.9282   -0.0670    0.0000 C   0  0  0  0  0  0  0  0  0  0  0  0
    2.8660   -1.5670    0.0000 C   0  0  0  0  0  0  0  0  0  0  0  0
    6.3301   -0.5670    0.0000 C   0  0  3  0  0  0  0  0  0  0  0  0
    7.5622    0.2990    0.0000 C   0  0  0  0  0  0  0  0  0  0  0  0
    8.5622   -1.4330    0.0000 C   0  0  0  0  0  0  0  0  0  0  0  0
    9.7942    0.4330    0.0000 C   0  0  0  0  0  0  0  0  0  0  0  0
    8.4282    0.7990    0.0000 C   0  0  0  0  0  0  0  0  0  0  0  0
    9.4282   -0.9330    0.0000 C   0  0  0  0  0  0  0  0  0  0  0  0
    6.3301    0.4330    0.0000 C   0  0  0  0  0  0  0  0  0  0  0  0
    5.4641   -1.0670    0.0000 C   0  0  0  0  0  0  0  0  0  0  0  0
    2.0000   -2.0670    0.0000 C   0  0  0  0  0  0  0  0  0  0  0  0
    2.3660   -0.7010    0.0000 C   0  0  0  0  0  0  0  0  0  0  0  0
    3.3660   -2.4330    0.0000 C   0  0  0  0  0  0  0  0  0  0  0  0
    3.2320   -0.2010    0.0000 C   0  0  0  0  0  0  0  0  0  0  0  0
    4.2320   -1.9330    0.0000 C   0  0  0  0  0  0  0  0  0  0  0  0
    5.4641    0.9330    0.0000 C   0  0  0  0  0  0  0  0  0  0  0  0
    4.5981    2.4330    0.0000 C   0  0  0  0  0  0  0  0  0  0  0  0
    7.1962   -1.6870    0.0000 H   0  0  0  0  0  0  0  0  0  0  0  0
    6.8671   -0.2570    0.0000 H   0  0  0  0  0  0  0  0  0  0  0  0
    8.0991    0.6090    0.0000 H   0  0  0  0  0  0  0  0  0  0  0  0
    7.2522    0.8360    0.0000 H   0  0  0  0  0  0  0  0  0  0  0  0
    7.0252   -0.0110    0.0000 H   0  0  0  0  0  0  0  0  0  0  0  0
    8.0252   -1.7430    0.0000 H   0  0  0  0  0  0  0  0  0  0  0  0
    8.8722   -1.9700    0.0000 H   0  0  0  0  0  0  0  0  0  0  0  0
    9.0991   -1.1230    0.0000 H   0  0  0  0  0  0  0  0  0  0  0  0
   10.1042   -0.1039    0.0000 H   0  0  0  0  0  0  0  0  0  0  0  0
   10.3312    0.7430    0.0000 H   0  0  0  0  0  0  0  0  0  0  0  0
    9.4842    0.9699    0.0000 H   0  0  0  0  0  0  0  0  0  0  0  0
    8.9651    1.1090    0.0000 H   0  0  0  0  0  0  0  0  0  0  0  0
    8.1182    1.3360    0.0000 H   0  0  0  0  0  0  0  0  0  0  0  0
    7.8913    0.4890    0.0000 H   0  0  0  0  0  0  0  0  0  0  0  0
    8.8913   -1.2430    0.0000 H   0  0  0  0  0  0  0  0  0  0  0  0
    9.7382   -1.4700    0.0000 H   0  0  0  0  0  0  0  0  0  0  0  0
    9.9651   -0.6230    0.0000 H   0  0  0  0  0  0  0  0  0  0  0  0
    6.9407    0.3254    0.0000 H   0  0  0  0  0  0  0  0  0  0  0  0
    6.5422    1.0156    0.0000 H   0  0  0  0  0  0  0  0  0  0  0  0
    1.6900   -1.5300    0.0000 H   0  0  0  0  0  0  0  0  0  0  0  0
    1.4631   -2.3770    0.0000 H   0  0  0  0  0  0  0  0  0  0  0  0
    2.3100   -2.6039    0.0000 H   0  0  0  0  0  0  0  0  0  0  0  0
    2.9030   -0.3910    0.0000 H   0  0  0  0  0  0  0  0  0  0  0  0
    2.0560   -0.1640    0.0000 H   0  0  0  0  0  0  0  0  0  0  0  0
    1.8291   -1.0110    0.0000 H   0  0  0  0  0  0  0  0  0  0  0  0
    2.8291   -2.7430    0.0000 H   0  0  0  0  0  0  0  0  0  0  0  0
    3.6760   -2.9700    0.0000 H   0  0  0  0  0  0  0  0  0  0  0  0
    3.9030   -2.1230    0.0000 H   0  0  0  0  0  0  0  0  0  0  0  0
    3.7690    0.1090    0.0000 H   0  0  0  0  0  0  0  0  0  0  0  0
    2.9220    0.3360    0.0000 H   0  0  0  0  0  0  0  0  0  0  0  0
    2.6951   -0.5110    0.0000 H   0  0  0  0  0  0  0  0  0  0  0  0
    3.6951   -2.2430    0.0000 H   0  0  0  0  0  0  0  0  0  0  0  0
    4.5420   -2.4700    0.0000 H   0  0  0  0  0  0  0  0  0  0  0  0
    4.7690   -1.6230    0.0000 H   0  0  0  0  0  0  0  0  0  0  0  0
    4.8535    1.0407    0.0000 H   0  0  0  0  0  0  0  0  0  0  0  0
    5.2520    0.3504    0.0000 H   0  0  0  0  0  0  0  0  0  0  0  0
    4.9081    2.9700    0.0000 H   0  0  0  0  0  0  0  0  0  0  0  0
    4.0611    2.7430    0.0000 H   0  0  0  0  0  0  0  0  0  0  0  0
    4.2881    1.8961    0.0000 H   0  0  0  0  0  0  0  0  0  0  0  0
  1 22  1  0  0  0  0
  1 23  1  0  0  0  0
  2  6  1  0  0  0  0
  2  7  1  0  0  0  0
  2 10  1  0  0  0  0
  2 11  1  0  0  0  0
  3  4  1  0  0  0  0
  3  8  1  0  0  0  0
  3 20  1  0  0  0  0
  3 21  1  0  0  0  0
  4 16  1  0  0  0  0
  5 16  2  0  0  0  0
  6  9  1  0  0  0  0
  6 24  1  0  0  0  0
  7 12  1  0  0  0  0
  7 13  1  0  0  0  0
  7 14  1  0  0  0  0
  8 17  1  0  0  0  0
  8 18  1  0  0  0  0
  8 19  1  0  0  0  0
  9 15  1  0  0  0  0
  9 16  1  0  0  0  0
  9 25  1  0  0  0  0
 10 26  1  0  0  0  0
 10 27  1  0  0  0  0
 10 28  1  0  0  0  0
 11 29  1  0  0  0  0
 11 30  1  0  0  0  0
 11 31  1  0  0  0  0
 12 32  1  0  0  0  0
 12 33  1  0  0  0  0
 12 34  1  0  0  0  0
 13 35  1  0  0  0  0
 13 36  1  0  0  0  0
 13 37  1  0  0  0  0
 14 38  1  0  0  0  0
 14 39  1  0  0  0  0
 14 40  1  0  0  0  0
 15 22  1  0  0  0  0
 15 41  1  0  0  0  0
 15 42  1  0  0  0  0
 17 43  1  0  0  0  0
 17 44  1  0  0  0  0
 17 45  1  0  0  0  0
 18 46  1  0  0  0  0
 18 47  1  0  0  0  0
 18 48  1  0  0  0  0
 19 49  1  0  0  0  0
 19 50  1  0  0  0  0
 19 51  1  0  0  0  0
 20 52  1  0  0  0  0
 20 53  1  0  0  0  0
 20 54  1  0  0  0  0
 21 55  1  0  0  0  0
 21 56  1  0  0  0  0
 21 57  1  0  0  0  0
 22 58  1  0  0  0  0
 22 59  1  0  0  0  0
 23 60  1  0  0  0  0
 23 61  1  0  0  0  0
 23 62  1  0  0  0  0
M  END
> <PUBCHEM_COMPOUND_CID>
528061
> <PUBCHEM_COMPOUND_CANONICALIZED>
1
> <PUBCHEM_CACTVS_COMPLEXITY>
398
> <PUBCHEM_CACTVS_HBOND_ACCEPTOR>
4
> <PUBCHEM_CACTVS_HBOND_DONOR>
1
> <PUBCHEM_CACTVS_ROTATABLE_BOND>
10
> <PUBCHEM_CACTVS_SUBSKEYS>
AAADcfB6MAxAAAAAAAAAAAAAAAAAAAAAAAAAAAAAAAAAAAAAAAAAHhQRAEAADCjF4ATCCABAAAkIAACQCAAAAAAAABAAAIGAAAACABAgAAAAAAAEEAAAAAAAAAAAAAAAAAAAAAAAAAAAAAAAAAAAAAAAAA==
> <PUBCHEM_IUPAC_OPENEYE_NAME>
[tert-butyl(dimethyl)silyl] 2-[[tert-butyl(dimethyl)silyl]amino]-4-methylsulfanyl-butanoate
> <PUBCHEM_IUPAC_CAS_NAME>
2-[[tert-butyl(dimethyl)silyl]amino]-4-(methylthio)butanoic acid [tert-butyl(dimethyl)silyl] ester
> <PUBCHEM_IUPAC_NAME_MARKUP>
[<I>tert</I>-butyl(dimethyl)silyl] 2-[[<I>tert</I>-butyl(dimethyl)silyl]amino]-4-methylsulfanylbutanoate
> <PUBCHEM_IUPAC_NAME>
[tert-butyl(dimethyl)silyl] 2-[[tert-butyl(dimethyl)silyl]amino]-4-methylsulfanylbutanoate
> <PUBCHEM_IUPAC_SYSTEMATIC_NAME>
[tert-butyl(dimethyl)silyl] 2-[[tert-butyl(dimethyl)silyl]amino]-4-methylsulfanyl-butanoate
> <PUBCHEM_IUPAC_TRADITIONAL_NAME>
2-[[tert-butyl(dimethyl)silyl]amino]-4-(methylthio)butyric acid [tert-butyl(dimethyl)silyl] ester
> <PUBCHEM_IUPAC_INCHI>
InChI=1S/C17H39NO2SSi2/c1-16(2,3)22(8,9)18-14(12-13-21-7)15(19)20-23(10,11)17(4,5)6/h14,18H,12-13H2,1-11H3
> <PUBCHEM_IUPAC_INCHIKEY>
GFTNLYSBKQIIQN-UHFFFAOYSA-N
> <PUBCHEM_EXACT_MASS>
377.22400373
> <PUBCHEM_MOLECULAR_FORMULA>
C17H39NO2SSi2
> <PUBCHEM_MOLECULAR_WEIGHT>
377.7
> <PUBCHEM_OPENEYE_CAN_SMILES>
CC(C)(C)[Si](C)(C)NC(CCSC)C(=O)O[Si](C)(C)C(C)(C)C
> <PUBCHEM_OPENEYE_ISO_SMILES>
CC(C)(C)[Si](C)(C)NC(CCSC)C(=O)O[Si](C)(C)C(C)(C)C
> <PUBCHEM_CACTVS_TPSA>
63.6
> <PUBCHEM_MONOISOTOPIC_WEIGHT>
377.22400373
> <PUBCHEM_TOTAL_CHARGE>
0
> <PUBCHEM_HEAVY_ATOM_COUNT>
23
> <PUBCHEM_ATOM_DEF_STEREO_COUNT>
0
> <PUBCHEM_ATOM_UDEF_STEREO_COUNT>
1
> <PUBCHEM_BOND_DEF_STEREO_COUNT>
0
> <PUBCHEM_BOND_UDEF_STEREO_COUNT>
0
> <PUBCHEM_ISOTOPIC_ATOM_COUNT>
0
> <PUBCHEM_COMPONENT_COUNT>
1
> <PUBCHEM_CACTVS_TAUTO_COUNT>
-1
> <PUBCHEM_COORDINATE_TYPE>
1
5
255
> <PUBCHEM_BONDANNOTATIONS>
9  15  3
$$$$
