528012
  -OEChem-10302200292D
 30 30  0     1  0  0  0  0  0999 V2000
    3.7320    1.0000    0.0000 O   0  0  0  0  0  0  0  0  0  0  0  0
    2.0000    1.0000    0.0000 O   0  0  0  0  0  0  0  0  0  0  0  0
    2.0000   -4.0000    0.0000 O   0  5  0  0  0  0  0  0  0  0  0  0
    3.7320   -4.0000    0.0000 O   0  0  0  0  0  0  0  0  0  0  0  0
    2.8660   -3.5000    0.0000 N   0  3  0  0  0  0  0  0  0  0  0  0
    3.7320    2.0000    0.0000 C   0  0  3  0  0  0  0  0  0  0  0  0
    4.5981    2.5000    0.0000 C   0  0  0  0  0  0  0  0  0  0  0  0
    2.8660    2.5000    0.0000 C   0  0  0  0  0  0  0  0  0  0  0  0
    2.8660   -0.5000    0.0000 C   0  0  0  0  0  0  0  0  0  0  0  0
    2.8660    0.5000    0.0000 C   0  0  0  0  0  0  0  0  0  0  0  0
    4.5981    3.5000    0.0000 C   0  0  0  0  0  0  0  0  0  0  0  0
    3.7320   -1.0000    0.0000 C   0  0  0  0  0  0  0  0  0  0  0  0
    2.0000   -1.0000    0.0000 C   0  0  0  0  0  0  0  0  0  0  0  0
    2.8660   -2.5000    0.0000 C   0  0  0  0  0  0  0  0  0  0  0  0
    3.7320   -2.0000    0.0000 C   0  0  0  0  0  0  0  0  0  0  0  0
    2.0000   -2.0000    0.0000 C   0  0  0  0  0  0  0  0  0  0  0  0
    5.4641    4.0000    0.0000 C   0  0  0  0  0  0  0  0  0  0  0  0
    4.2690    1.6900    0.0000 H   0  0  0  0  0  0  0  0  0  0  0  0
    4.8101    1.9174    0.0000 H   0  0  0  0  0  0  0  0  0  0  0  0
    5.2087    2.6077    0.0000 H   0  0  0  0  0  0  0  0  0  0  0  0
    3.1760    3.0369    0.0000 H   0  0  0  0  0  0  0  0  0  0  0  0
    2.3291    2.8100    0.0000 H   0  0  0  0  0  0  0  0  0  0  0  0
    2.5560    1.9631    0.0000 H   0  0  0  0  0  0  0  0  0  0  0  0
    4.0611    3.8100    0.0000 H   0  0  0  0  0  0  0  0  0  0  0  0
    4.2690   -0.6900    0.0000 H   0  0  0  0  0  0  0  0  0  0  0  0
    1.4631   -0.6900    0.0000 H   0  0  0  0  0  0  0  0  0  0  0  0
    4.2690   -2.3100    0.0000 H   0  0  0  0  0  0  0  0  0  0  0  0
    1.4631   -2.3100    0.0000 H   0  0  0  0  0  0  0  0  0  0  0  0
    6.0010    3.6900    0.0000 H   0  0  0  0  0  0  0  0  0  0  0  0
    5.4641    4.6200    0.0000 H   0  0  0  0  0  0  0  0  0  0  0  0
  1  6  1  0  0  0  0
  1 10  1  0  0  0  0
  2 10  2  0  0  0  0
  3  5  1  0  0  0  0
  4  5  2  0  0  0  0
  5 14  1  0  0  0  0
  6  7  1  0  0  0  0
  6  8  1  0  0  0  0
  6 18  1  0  0  0  0
  7 11  1  0  0  0  0
  7 19  1  0  0  0  0
  7 20  1  0  0  0  0
  8 21  1  0  0  0  0
  8 22  1  0  0  0  0
  8 23  1  0  0  0  0
  9 10  1  0  0  0  0
  9 12  2  0  0  0  0
  9 13  1  0  0  0  0
 11 17  2  0  0  0  0
 11 24  1  0  0  0  0
 12 15  1  0  0  0  0
 12 25  1  0  0  0  0
 13 16  2  0  0  0  0
 13 26  1  0  0  0  0
 14 15  2  0  0  0  0
 14 16  1  0  0  0  0
 15 27  1  0  0  0  0
 16 28  1  0  0  0  0
 17 29  1  0  0  0  0
 17 30  1  0  0  0  0
M  CHG  2   3  -1   5   1
M  END
> <PUBCHEM_COMPOUND_CID>
528012
> <PUBCHEM_COMPOUND_CANONICALIZED>
1
> <PUBCHEM_CACTVS_COMPLEXITY>
289
> <PUBCHEM_CACTVS_HBOND_ACCEPTOR>
4
> <PUBCHEM_CACTVS_HBOND_DONOR>
0
> <PUBCHEM_CACTVS_ROTATABLE_BOND>
5
> <PUBCHEM_CACTVS_SUBSKEYS>
AAADccByOAAAAAAAAAAAAAAAAAAAAAAAAAAwAAAAAAAAAAABAAAAHgAEAAAADByhmAIyyIAQRACJAiTSSwCCAAAkAgAoiAEAbMoIJjKAtZmCMQBkwAEI6YeY2SGeCAAAAAAAAAAQAAAAAAAAAAAAAAAAAA==
> <PUBCHEM_IUPAC_OPENEYE_NAME>
1-methylbut-3-enyl 4-nitrobenzoate
> <PUBCHEM_IUPAC_CAS_NAME>
4-nitrobenzoic acid pent-4-en-2-yl ester
> <PUBCHEM_IUPAC_NAME_MARKUP>
pent-4-en-2-yl 4-nitrobenzoate
> <PUBCHEM_IUPAC_NAME>
pent-4-en-2-yl 4-nitrobenzoate
> <PUBCHEM_IUPAC_SYSTEMATIC_NAME>
pent-4-en-2-yl 4-nitrobenzoate
> <PUBCHEM_IUPAC_TRADITIONAL_NAME>
4-nitrobenzoic acid 1-methylbut-3-enyl ester
> <PUBCHEM_IUPAC_INCHI>
InChI=1S/C12H13NO4/c1-3-4-9(2)17-12(14)10-5-7-11(8-6-10)13(15)16/h3,5-9H,1,4H2,2H3
> <PUBCHEM_IUPAC_INCHIKEY>
XOURINZFXLPYEX-UHFFFAOYSA-N
> <PUBCHEM_XLOGP3_AA>
3.1
> <PUBCHEM_EXACT_MASS>
235.08445790
> <PUBCHEM_MOLECULAR_FORMULA>
C12H13NO4
> <PUBCHEM_MOLECULAR_WEIGHT>
235.24
> <PUBCHEM_OPENEYE_CAN_SMILES>
CC(CC=C)OC(=O)C1=CC=C(C=C1)[N+](=O)[O-]
> <PUBCHEM_OPENEYE_ISO_SMILES>
CC(CC=C)OC(=O)C1=CC=C(C=C1)[N+](=O)[O-]
> <PUBCHEM_CACTVS_TPSA>
72.1
> <PUBCHEM_MONOISOTOPIC_WEIGHT>
235.08445790
> <PUBCHEM_TOTAL_CHARGE>
0
> <PUBCHEM_HEAVY_ATOM_COUNT>
17
> <PUBCHEM_ATOM_DEF_STEREO_COUNT>
0
> <PUBCHEM_ATOM_UDEF_STEREO_COUNT>
1
> <PUBCHEM_BOND_DEF_STEREO_COUNT>
0
> <PUBCHEM_BOND_UDEF_STEREO_COUNT>
0
> <PUBCHEM_ISOTOPIC_ATOM_COUNT>
0
> <PUBCHEM_COMPONENT_COUNT>
1
> <PUBCHEM_CACTVS_TAUTO_COUNT>
-1
> <PUBCHEM_COORDINATE_TYPE>
1
5
255
> <PUBCHEM_BONDANNOTATIONS>
12  15  8
13  16  8
14  15  8
14  16  8
6  8  3
9  12  8
9  13  8
$$$$
