528133
  -OEChem-10302200292D
 35 35  0     1  0  0  0  0  0999 V2000
    8.9282    0.5000    0.0000 S   0  0  0  0  0  0  0  0  0  0  0  0
    7.1962   -1.5000    0.0000 N   0  0  0  0  0  0  0  0  0  0  0  0
    7.1962    0.5000    0.0000 N   0  0  0  0  0  0  0  0  0  0  0  0
    4.5981   -1.0000    0.0000 C   0  0  3  0  0  0  0  0  0  0  0  0
    3.7320   -1.5000    0.0000 C   0  0  0  0  0  0  0  0  0  0  0  0
    5.4641   -1.5000    0.0000 C   0  0  0  0  0  0  0  0  0  0  0  0
    2.8660   -1.0000    0.0000 C   0  0  0  0  0  0  0  0  0  0  0  0
    4.5981   -0.0000    0.0000 C   0  0  0  0  0  0  0  0  0  0  0  0
    6.3301   -1.0000    0.0000 C   0  0  0  0  0  0  0  0  0  0  0  0
    2.0000   -1.5000    0.0000 C   0  0  0  0  0  0  0  0  0  0  0  0
    6.3301   -0.0000    0.0000 C   0  0  0  0  0  0  0  0  0  0  0  0
    8.0622   -1.0000    0.0000 C   0  0  0  0  0  0  0  0  0  0  0  0
    8.0622    0.0000    0.0000 C   0  0  0  0  0  0  0  0  0  0  0  0
    8.9282   -1.5000    0.0000 C   0  0  0  0  0  0  0  0  0  0  0  0
    8.9282    1.5000    0.0000 C   0  0  0  0  0  0  0  0  0  0  0  0
    5.1350   -0.6900    0.0000 H   0  0  0  0  0  0  0  0  0  0  0  0
    3.3335   -1.9750    0.0000 H   0  0  0  0  0  0  0  0  0  0  0  0
    4.1306   -1.9750    0.0000 H   0  0  0  0  0  0  0  0  0  0  0  0
    5.0656   -1.9750    0.0000 H   0  0  0  0  0  0  0  0  0  0  0  0
    5.8626   -1.9750    0.0000 H   0  0  0  0  0  0  0  0  0  0  0  0
    3.2646   -0.5251    0.0000 H   0  0  0  0  0  0  0  0  0  0  0  0
    2.4675   -0.5251    0.0000 H   0  0  0  0  0  0  0  0  0  0  0  0
    5.2181   -0.0000    0.0000 H   0  0  0  0  0  0  0  0  0  0  0  0
    4.5981    0.6200    0.0000 H   0  0  0  0  0  0  0  0  0  0  0  0
    3.9781   -0.0000    0.0000 H   0  0  0  0  0  0  0  0  0  0  0  0
    1.6900   -0.9631    0.0000 H   0  0  0  0  0  0  0  0  0  0  0  0
    1.4631   -1.8100    0.0000 H   0  0  0  0  0  0  0  0  0  0  0  0
    2.3100   -2.0369    0.0000 H   0  0  0  0  0  0  0  0  0  0  0  0
    5.7932    0.3100    0.0000 H   0  0  0  0  0  0  0  0  0  0  0  0
    8.6182   -2.0369    0.0000 H   0  0  0  0  0  0  0  0  0  0  0  0
    9.4651   -1.8100    0.0000 H   0  0  0  0  0  0  0  0  0  0  0  0
    9.2382   -0.9631    0.0000 H   0  0  0  0  0  0  0  0  0  0  0  0
    9.5482    1.5000    0.0000 H   0  0  0  0  0  0  0  0  0  0  0  0
    8.9282    2.1200    0.0000 H   0  0  0  0  0  0  0  0  0  0  0  0
    8.3082    1.5000    0.0000 H   0  0  0  0  0  0  0  0  0  0  0  0
  1 13  1  0  0  0  0
  1 15  1  0  0  0  0
  2  9  1  0  0  0  0
  2 12  2  0  0  0  0
  3 11  1  0  0  0  0
  3 13  2  0  0  0  0
  4  5  1  0  0  0  0
  4  6  1  0  0  0  0
  4  8  1  0  0  0  0
  4 16  1  0  0  0  0
  5  7  1  0  0  0  0
  5 17  1  0  0  0  0
  5 18  1  0  0  0  0
  6  9  1  0  0  0  0
  6 19  1  0  0  0  0
  6 20  1  0  0  0  0
  7 10  1  0  0  0  0
  7 21  1  0  0  0  0
  7 22  1  0  0  0  0
  8 23  1  0  0  0  0
  8 24  1  0  0  0  0
  8 25  1  0  0  0  0
  9 11  2  0  0  0  0
 10 26  1  0  0  0  0
 10 27  1  0  0  0  0
 10 28  1  0  0  0  0
 11 29  1  0  0  0  0
 12 13  1  0  0  0  0
 12 14  1  0  0  0  0
 14 30  1  0  0  0  0
 14 31  1  0  0  0  0
 14 32  1  0  0  0  0
 15 33  1  0  0  0  0
 15 34  1  0  0  0  0
 15 35  1  0  0  0  0
M  END
> <PUBCHEM_COMPOUND_CID>
528133
> <PUBCHEM_COMPOUND_CANONICALIZED>
1
> <PUBCHEM_CACTVS_COMPLEXITY>
175
> <PUBCHEM_CACTVS_HBOND_ACCEPTOR>
3
> <PUBCHEM_CACTVS_HBOND_DONOR>
0
> <PUBCHEM_CACTVS_ROTATABLE_BOND>
5
> <PUBCHEM_CACTVS_SUBSKEYS>
AAADceBzAABAAAAAAAAAAAAAAAAAAAAAAAAsAAAAAAAAAAABgAAAHAQAAAAADQjBVgSugRIIEAigARRnRAAA0CRxGjAAUBQ4cAgAYEJgkQCUAAAAgADAQAEQgAAOAAAAAAAAAAAAAAAAAAAAAAAAAAAAAA==
> <PUBCHEM_IUPAC_OPENEYE_NAME>
3-methyl-5-(2-methylpentyl)-2-methylsulfanyl-pyrazine
> <PUBCHEM_IUPAC_CAS_NAME>
3-methyl-5-(2-methylpentyl)-2-(methylthio)pyrazine
> <PUBCHEM_IUPAC_NAME_MARKUP>
3-methyl-5-(2-methylpentyl)-2-methylsulfanylpyrazine
> <PUBCHEM_IUPAC_NAME>
3-methyl-5-(2-methylpentyl)-2-methylsulfanylpyrazine
> <PUBCHEM_IUPAC_SYSTEMATIC_NAME>
3-methyl-5-(2-methylpentyl)-2-methylsulfanyl-pyrazine
> <PUBCHEM_IUPAC_TRADITIONAL_NAME>
3-methyl-5-(2-methylpentyl)-2-(methylthio)pyrazine
> <PUBCHEM_IUPAC_INCHI>
InChI=1S/C12H20N2S/c1-5-6-9(2)7-11-8-13-12(15-4)10(3)14-11/h8-9H,5-7H2,1-4H3
> <PUBCHEM_IUPAC_INCHIKEY>
LJKPXYGPGYYPSW-UHFFFAOYSA-N
> <PUBCHEM_XLOGP3_AA>
3.7
> <PUBCHEM_EXACT_MASS>
224.13471982
> <PUBCHEM_MOLECULAR_FORMULA>
C12H20N2S
> <PUBCHEM_MOLECULAR_WEIGHT>
224.37
> <PUBCHEM_OPENEYE_CAN_SMILES>
CCCC(C)CC1=CN=C(C(=N1)C)SC
> <PUBCHEM_OPENEYE_ISO_SMILES>
CCCC(C)CC1=CN=C(C(=N1)C)SC
> <PUBCHEM_CACTVS_TPSA>
51.1
> <PUBCHEM_MONOISOTOPIC_WEIGHT>
224.13471982
> <PUBCHEM_TOTAL_CHARGE>
0
> <PUBCHEM_HEAVY_ATOM_COUNT>
15
> <PUBCHEM_ATOM_DEF_STEREO_COUNT>
0
> <PUBCHEM_ATOM_UDEF_STEREO_COUNT>
1
> <PUBCHEM_BOND_DEF_STEREO_COUNT>
0
> <PUBCHEM_BOND_UDEF_STEREO_COUNT>
0
> <PUBCHEM_ISOTOPIC_ATOM_COUNT>
0
> <PUBCHEM_COMPONENT_COUNT>
1
> <PUBCHEM_CACTVS_TAUTO_COUNT>
-1
> <PUBCHEM_COORDINATE_TYPE>
1
5
255
> <PUBCHEM_BONDANNOTATIONS>
12  13  8
2  12  8
2  9  8
3  11  8
3  13  8
4  8  3
9  11  8
$$$$
