528120
  -OEChem-10302200292D
 38 38  0     1  0  0  0  0  0999 V2000
    8.9282    0.2500    0.0000 S   0  0  0  0  0  0  0  0  0  0  0  0
    7.1962   -1.7500    0.0000 N   0  0  0  0  0  0  0  0  0  0  0  0
    7.1962    0.2500    0.0000 N   0  0  0  0  0  0  0  0  0  0  0  0
    4.5981   -1.2500    0.0000 C   0  0  3  0  0  0  0  0  0  0  0  0
    3.7320   -1.7500    0.0000 C   0  0  0  0  0  0  0  0  0  0  0  0
    5.4641   -1.7500    0.0000 C   0  0  0  0  0  0  0  0  0  0  0  0
    2.8660   -1.2500    0.0000 C   0  0  0  0  0  0  0  0  0  0  0  0
    4.5981   -0.2500    0.0000 C   0  0  0  0  0  0  0  0  0  0  0  0
    6.3301   -1.2500    0.0000 C   0  0  0  0  0  0  0  0  0  0  0  0
    2.0000   -1.7500    0.0000 C   0  0  0  0  0  0  0  0  0  0  0  0
    6.3301   -0.2500    0.0000 C   0  0  0  0  0  0  0  0  0  0  0  0
    8.0622   -1.2500    0.0000 C   0  0  0  0  0  0  0  0  0  0  0  0
    8.0622   -0.2500    0.0000 C   0  0  0  0  0  0  0  0  0  0  0  0
    8.9282   -1.7500    0.0000 C   0  0  0  0  0  0  0  0  0  0  0  0
    8.9282    1.2500    0.0000 C   0  0  0  0  0  0  0  0  0  0  0  0
    9.7942    1.7500    0.0000 C   0  0  0  0  0  0  0  0  0  0  0  0
    5.1350   -0.9400    0.0000 H   0  0  0  0  0  0  0  0  0  0  0  0
    3.3335   -2.2250    0.0000 H   0  0  0  0  0  0  0  0  0  0  0  0
    4.1306   -2.2250    0.0000 H   0  0  0  0  0  0  0  0  0  0  0  0
    5.0656   -2.2250    0.0000 H   0  0  0  0  0  0  0  0  0  0  0  0
    5.8626   -2.2250    0.0000 H   0  0  0  0  0  0  0  0  0  0  0  0
    3.2646   -0.7751    0.0000 H   0  0  0  0  0  0  0  0  0  0  0  0
    2.4675   -0.7751    0.0000 H   0  0  0  0  0  0  0  0  0  0  0  0
    5.2181   -0.2500    0.0000 H   0  0  0  0  0  0  0  0  0  0  0  0
    4.5981    0.3700    0.0000 H   0  0  0  0  0  0  0  0  0  0  0  0
    3.9781   -0.2500    0.0000 H   0  0  0  0  0  0  0  0  0  0  0  0
    1.6900   -1.2131    0.0000 H   0  0  0  0  0  0  0  0  0  0  0  0
    1.4631   -2.0600    0.0000 H   0  0  0  0  0  0  0  0  0  0  0  0
    2.3100   -2.2869    0.0000 H   0  0  0  0  0  0  0  0  0  0  0  0
    5.7932    0.0600    0.0000 H   0  0  0  0  0  0  0  0  0  0  0  0
    8.6182   -2.2869    0.0000 H   0  0  0  0  0  0  0  0  0  0  0  0
    9.4651   -2.0600    0.0000 H   0  0  0  0  0  0  0  0  0  0  0  0
    9.2382   -1.2131    0.0000 H   0  0  0  0  0  0  0  0  0  0  0  0
    8.7162    1.8326    0.0000 H   0  0  0  0  0  0  0  0  0  0  0  0
    8.3176    1.1423    0.0000 H   0  0  0  0  0  0  0  0  0  0  0  0
   10.1042    1.2131    0.0000 H   0  0  0  0  0  0  0  0  0  0  0  0
   10.3312    2.0600    0.0000 H   0  0  0  0  0  0  0  0  0  0  0  0
    9.4842    2.2869    0.0000 H   0  0  0  0  0  0  0  0  0  0  0  0
  1 13  1  0  0  0  0
  1 15  1  0  0  0  0
  2  9  1  0  0  0  0
  2 12  2  0  0  0  0
  3 11  1  0  0  0  0
  3 13  2  0  0  0  0
  4  5  1  0  0  0  0
  4  6  1  0  0  0  0
  4  8  1  0  0  0  0
  4 17  1  0  0  0  0
  5  7  1  0  0  0  0
  5 18  1  0  0  0  0
  5 19  1  0  0  0  0
  6  9  1  0  0  0  0
  6 20  1  0  0  0  0
  6 21  1  0  0  0  0
  7 10  1  0  0  0  0
  7 22  1  0  0  0  0
  7 23  1  0  0  0  0
  8 24  1  0  0  0  0
  8 25  1  0  0  0  0
  8 26  1  0  0  0  0
  9 11  2  0  0  0  0
 10 27  1  0  0  0  0
 10 28  1  0  0  0  0
 10 29  1  0  0  0  0
 11 30  1  0  0  0  0
 12 13  1  0  0  0  0
 12 14  1  0  0  0  0
 14 31  1  0  0  0  0
 14 32  1  0  0  0  0
 14 33  1  0  0  0  0
 15 16  1  0  0  0  0
 15 34  1  0  0  0  0
 15 35  1  0  0  0  0
 16 36  1  0  0  0  0
 16 37  1  0  0  0  0
 16 38  1  0  0  0  0
M  END
> <PUBCHEM_COMPOUND_CID>
528120
> <PUBCHEM_COMPOUND_CANONICALIZED>
1
> <PUBCHEM_CACTVS_COMPLEXITY>
187
> <PUBCHEM_CACTVS_HBOND_ACCEPTOR>
3
> <PUBCHEM_CACTVS_HBOND_DONOR>
0
> <PUBCHEM_CACTVS_ROTATABLE_BOND>
6
> <PUBCHEM_CACTVS_SUBSKEYS>
AAADceBzAABAAAAAAAAAAAAAAAAAAAAAAAAsAAAAAAAAAAABgAAAHAQAAAAADQjFVgSugRIIEAigARRnRAAA0CRxGjAAUBQ4cAgAYEJgkQCUAAAAgADgQAEQgAAOAAAAAAAAAAAAAAAAAAAAAAAAAAAAAA==
> <PUBCHEM_IUPAC_OPENEYE_NAME>
2-ethylsulfanyl-3-methyl-5-(2-methylpentyl)pyrazine
> <PUBCHEM_IUPAC_CAS_NAME>
2-(ethylthio)-3-methyl-5-(2-methylpentyl)pyrazine
> <PUBCHEM_IUPAC_NAME_MARKUP>
2-ethylsulfanyl-3-methyl-5-(2-methylpentyl)pyrazine
> <PUBCHEM_IUPAC_NAME>
2-ethylsulfanyl-3-methyl-5-(2-methylpentyl)pyrazine
> <PUBCHEM_IUPAC_SYSTEMATIC_NAME>
2-ethylsulfanyl-3-methyl-5-(2-methylpentyl)pyrazine
> <PUBCHEM_IUPAC_TRADITIONAL_NAME>
2-(ethylthio)-3-methyl-5-(2-methylpentyl)pyrazine
> <PUBCHEM_IUPAC_INCHI>
InChI=1S/C13H22N2S/c1-5-7-10(3)8-12-9-14-13(16-6-2)11(4)15-12/h9-10H,5-8H2,1-4H3
> <PUBCHEM_IUPAC_INCHIKEY>
JLGYHZWFTNTWFR-UHFFFAOYSA-N
> <PUBCHEM_XLOGP3_AA>
4.1
> <PUBCHEM_EXACT_MASS>
238.15036988
> <PUBCHEM_MOLECULAR_FORMULA>
C13H22N2S
> <PUBCHEM_MOLECULAR_WEIGHT>
238.39
> <PUBCHEM_OPENEYE_CAN_SMILES>
CCCC(C)CC1=CN=C(C(=N1)C)SCC
> <PUBCHEM_OPENEYE_ISO_SMILES>
CCCC(C)CC1=CN=C(C(=N1)C)SCC
> <PUBCHEM_CACTVS_TPSA>
51.1
> <PUBCHEM_MONOISOTOPIC_WEIGHT>
238.15036988
> <PUBCHEM_TOTAL_CHARGE>
0
> <PUBCHEM_HEAVY_ATOM_COUNT>
16
> <PUBCHEM_ATOM_DEF_STEREO_COUNT>
0
> <PUBCHEM_ATOM_UDEF_STEREO_COUNT>
1
> <PUBCHEM_BOND_DEF_STEREO_COUNT>
0
> <PUBCHEM_BOND_UDEF_STEREO_COUNT>
0
> <PUBCHEM_ISOTOPIC_ATOM_COUNT>
0
> <PUBCHEM_COMPONENT_COUNT>
1
> <PUBCHEM_CACTVS_TAUTO_COUNT>
-1
> <PUBCHEM_COORDINATE_TYPE>
1
5
255
> <PUBCHEM_BONDANNOTATIONS>
12  13  8
2  12  8
2  9  8
3  11  8
3  13  8
4  8  3
9  11  8
$$$$
