528193
  -OEChem-10302200292D
 49 51  0     1  0  0  0  0  0999 V2000
    3.6942    0.1599    0.0000 Si  0  0  0  0  0  0  0  0  0  0  0  0
    4.3633    0.9030    0.0000 O   0  0  0  0  0  0  0  0  0  0  0  0
    4.1942   -0.7061    0.0000 O   0  0  0  0  0  0  0  0  0  0  0  0
    6.1429    0.9963    0.0000 O   0  0  0  0  0  0  0  0  0  0  0  0
    9.6872    0.8010    0.0000 O   0  0  0  0  0  0  0  0  0  0  0  0
    9.6872   -0.8084    0.0000 O   0  0  0  0  0  0  0  0  0  0  0  0
    3.1942   -0.7061    0.0000 C   0  0  0  0  0  0  0  0  0  0  0  0
    2.9510    0.8290    0.0000 C   0  0  0  0  0  0  0  0  0  0  0  0
    5.2769    0.4963    0.0000 C   0  0  3  0  0  0  0  0  0  0  0  0
    2.6942   -1.5721    0.0000 C   0  0  0  0  0  0  0  0  0  0  0  0
    3.6942   -1.5722    0.0000 C   0  0  0  0  0  0  0  0  0  0  0  0
    2.3282   -0.2061    0.0000 C   0  0  0  0  0  0  0  0  0  0  0  0
    2.2079    1.4982    0.0000 C   0  0  0  0  0  0  0  0  0  0  0  0
    3.6202    1.5722    0.0000 C   0  0  0  0  0  0  0  0  0  0  0  0
    2.0000    0.5200    0.0000 C   0  0  0  0  0  0  0  0  0  0  0  0
    5.1724   -0.4982    0.0000 C   0  0  0  0  0  0  0  0  0  0  0  0
    7.0089    0.4963    0.0000 C   0  0  0  0  0  0  0  0  0  0  0  0
    7.8750    0.9963    0.0000 C   0  0  0  0  0  0  0  0  0  0  0  0
    7.0089   -0.5037    0.0000 C   0  0  0  0  0  0  0  0  0  0  0  0
    8.7410    0.4963    0.0000 C   0  0  0  0  0  0  0  0  0  0  0  0
    7.8750   -1.0037    0.0000 C   0  0  0  0  0  0  0  0  0  0  0  0
    8.7410   -0.5037    0.0000 C   0  0  0  0  0  0  0  0  0  0  0  0
   10.2708   -0.0037    0.0000 C   0  0  0  0  0  0  0  0  0  0  0  0
    5.7968    0.1586    0.0000 H   0  0  0  0  0  0  0  0  0  0  0  0
    2.1572   -1.2621    0.0000 H   0  0  0  0  0  0  0  0  0  0  0  0
    2.3842   -2.1091    0.0000 H   0  0  0  0  0  0  0  0  0  0  0  0
    3.2311   -1.8821    0.0000 H   0  0  0  0  0  0  0  0  0  0  0  0
    3.1573   -1.8822    0.0000 H   0  0  0  0  0  0  0  0  0  0  0  0
    4.0043   -2.1091    0.0000 H   0  0  0  0  0  0  0  0  0  0  0  0
    4.2312   -1.2622    0.0000 H   0  0  0  0  0  0  0  0  0  0  0  0
    2.6382    0.3308    0.0000 H   0  0  0  0  0  0  0  0  0  0  0  0
    1.7912    0.1039    0.0000 H   0  0  0  0  0  0  0  0  0  0  0  0
    2.0182   -0.7431    0.0000 H   0  0  0  0  0  0  0  0  0  0  0  0
    2.6228    1.9589    0.0000 H   0  0  0  0  0  0  0  0  0  0  0  0
    1.7472    1.9130    0.0000 H   0  0  0  0  0  0  0  0  0  0  0  0
    1.7930    1.0374    0.0000 H   0  0  0  0  0  0  0  0  0  0  0  0
    4.0809    1.1573    0.0000 H   0  0  0  0  0  0  0  0  0  0  0  0
    4.0350    2.0329    0.0000 H   0  0  0  0  0  0  0  0  0  0  0  0
    3.1594    1.9870    0.0000 H   0  0  0  0  0  0  0  0  0  0  0  0
    1.8084    1.1097    0.0000 H   0  0  0  0  0  0  0  0  0  0  0  0
    1.4104    0.3284    0.0000 H   0  0  0  0  0  0  0  0  0  0  0  0
    2.1916   -0.0696    0.0000 H   0  0  0  0  0  0  0  0  0  0  0  0
    5.2372   -1.1148    0.0000 H   0  0  0  0  0  0  0  0  0  0  0  0
    5.7924   -0.4982    0.0000 H   0  0  0  0  0  0  0  0  0  0  0  0
    7.8750    1.6163    0.0000 H   0  0  0  0  0  0  0  0  0  0  0  0
    6.4720   -0.8137    0.0000 H   0  0  0  0  0  0  0  0  0  0  0  0
    7.8750   -1.6237    0.0000 H   0  0  0  0  0  0  0  0  0  0  0  0
   10.7317   -0.4184    0.0000 H   0  0  0  0  0  0  0  0  0  0  0  0
   10.7317    0.4110    0.0000 H   0  0  0  0  0  0  0  0  0  0  0  0
  1  2  1  0  0  0  0
  1  3  1  0  0  0  0
  1  7  1  0  0  0  0
  1  8  1  0  0  0  0
  2  9  1  0  0  0  0
  3 16  1  0  0  0  0
  4  9  1  0  0  0  0
  4 17  1  0  0  0  0
  5 20  1  0  0  0  0
  5 23  1  0  0  0  0
  6 22  1  0  0  0  0
  6 23  1  0  0  0  0
  7 10  1  0  0  0  0
  7 11  1  0  0  0  0
  7 12  1  0  0  0  0
  8 13  1  0  0  0  0
  8 14  1  0  0  0  0
  8 15  1  0  0  0  0
  9 16  1  0  0  0  0
  9 24  1  0  0  0  0
 10 25  1  0  0  0  0
 10 26  1  0  0  0  0
 10 27  1  0  0  0  0
 11 28  1  0  0  0  0
 11 29  1  0  0  0  0
 11 30  1  0  0  0  0
 12 31  1  0  0  0  0
 12 32  1  0  0  0  0
 12 33  1  0  0  0  0
 13 34  1  0  0  0  0
 13 35  1  0  0  0  0
 13 36  1  0  0  0  0
 14 37  1  0  0  0  0
 14 38  1  0  0  0  0
 14 39  1  0  0  0  0
 15 40  1  0  0  0  0
 15 41  1  0  0  0  0
 15 42  1  0  0  0  0
 16 43  1  0  0  0  0
 16 44  1  0  0  0  0
 17 18  2  0  0  0  0
 17 19  1  0  0  0  0
 18 20  1  0  0  0  0
 18 45  1  0  0  0  0
 19 21  2  0  0  0  0
 19 46  1  0  0  0  0
 20 22  2  0  0  0  0
 21 22  1  0  0  0  0
 21 47  1  0  0  0  0
 23 48  1  0  0  0  0
 23 49  1  0  0  0  0
M  END
> <PUBCHEM_COMPOUND_CID>
528193
> <PUBCHEM_COMPOUND_CANONICALIZED>
1
> <PUBCHEM_CACTVS_COMPLEXITY>
414
> <PUBCHEM_CACTVS_HBOND_ACCEPTOR>
5
> <PUBCHEM_CACTVS_HBOND_DONOR>
0
> <PUBCHEM_CACTVS_ROTATABLE_BOND>
4
> <PUBCHEM_CACTVS_SUBSKEYS>
AAADceB4OAgAAAAAAAAAAAAAAAAAASJAAAAwAAAAAAAAAEgBAAAAGhAAAEAADASwsAMyDoAABAGAACBCAAACCAAgIAAIiAAGiIgdJyKEMRqiOCKlwBUOqAfAYAwAAQAACAAAQAACAAAQAACAAAAAAAAAAA==
> <PUBCHEM_IUPAC_OPENEYE_NAME>
4-(1,3-benzodioxol-5-yloxy)-2,2-ditert-butyl-1,3,2-dioxasilolane
> <PUBCHEM_IUPAC_CAS_NAME>
4-(1,3-benzodioxol-5-yloxy)-2,2-ditert-butyl-1,3,2-dioxasilolane
> <PUBCHEM_IUPAC_NAME_MARKUP>
4-(1,3-benzodioxol-5-yloxy)-2,2-di<I>tert</I>-butyl-1,3,2-dioxasilolane
> <PUBCHEM_IUPAC_NAME>
4-(1,3-benzodioxol-5-yloxy)-2,2-ditert-butyl-1,3,2-dioxasilolane
> <PUBCHEM_IUPAC_SYSTEMATIC_NAME>
4-(1,3-benzodioxol-5-yloxy)-2,2-ditert-butyl-1,3,2-dioxasilolane
> <PUBCHEM_IUPAC_TRADITIONAL_NAME>
4-(1,3-benzodioxol-5-yloxy)-2,2-ditert-butyl-1,3,2-dioxasilolane
> <PUBCHEM_IUPAC_INCHI>
InChI=1S/C17H26O5Si/c1-16(2,3)23(17(4,5)6)20-10-15(22-23)21-12-7-8-13-14(9-12)19-11-18-13/h7-9,15H,10-11H2,1-6H3
> <PUBCHEM_IUPAC_INCHIKEY>
BHWRFRGTLUYCSP-UHFFFAOYSA-N
> <PUBCHEM_EXACT_MASS>
338.15495046
> <PUBCHEM_MOLECULAR_FORMULA>
C17H26O5Si
> <PUBCHEM_MOLECULAR_WEIGHT>
338.5
> <PUBCHEM_OPENEYE_CAN_SMILES>
CC(C)(C)[Si]1(OCC(O1)OC2=CC3=C(C=C2)OCO3)C(C)(C)C
> <PUBCHEM_OPENEYE_ISO_SMILES>
CC(C)(C)[Si]1(OCC(O1)OC2=CC3=C(C=C2)OCO3)C(C)(C)C
> <PUBCHEM_CACTVS_TPSA>
46.2
> <PUBCHEM_MONOISOTOPIC_WEIGHT>
338.15495046
> <PUBCHEM_TOTAL_CHARGE>
0
> <PUBCHEM_HEAVY_ATOM_COUNT>
23
> <PUBCHEM_ATOM_DEF_STEREO_COUNT>
0
> <PUBCHEM_ATOM_UDEF_STEREO_COUNT>
1
> <PUBCHEM_BOND_DEF_STEREO_COUNT>
0
> <PUBCHEM_BOND_UDEF_STEREO_COUNT>
0
> <PUBCHEM_ISOTOPIC_ATOM_COUNT>
0
> <PUBCHEM_COMPONENT_COUNT>
1
> <PUBCHEM_CACTVS_TAUTO_COUNT>
-1
> <PUBCHEM_COORDINATE_TYPE>
1
5
255
> <PUBCHEM_BONDANNOTATIONS>
17  18  8
17  19  8
18  20  8
19  21  8
20  22  8
21  22  8
9  4  3
$$$$
