528105
  -OEChem-10302200292D
 34 34  0     1  0  0  0  0  0999 V2000
    4.5981    0.2500    0.0000 N   0  0  0  0  0  0  0  0  0  0  0  0
    4.5981    2.2500    0.0000 N   0  0  0  0  0  0  0  0  0  0  0  0
    2.8660   -0.7500    0.0000 C   0  0  3  0  0  0  0  0  0  0  0  0
    2.8660    0.2500    0.0000 C   0  0  0  0  0  0  0  0  0  0  0  0
    2.0000   -1.2500    0.0000 C   0  0  0  0  0  0  0  0  0  0  0  0
    3.7320    0.7500    0.0000 C   0  0  0  0  0  0  0  0  0  0  0  0
    3.7320   -1.2500    0.0000 C   0  0  0  0  0  0  0  0  0  0  0  0
    2.0000   -2.2500    0.0000 C   0  0  0  0  0  0  0  0  0  0  0  0
    3.7320    1.7500    0.0000 C   0  0  0  0  0  0  0  0  0  0  0  0
    5.4641    0.7500    0.0000 C   0  0  0  0  0  0  0  0  0  0  0  0
    5.4641    1.7500    0.0000 C   0  0  0  0  0  0  0  0  0  0  0  0
    2.8660    2.2500    0.0000 C   0  0  0  0  0  0  0  0  0  0  0  0
    6.3301    0.2500    0.0000 C   0  0  0  0  0  0  0  0  0  0  0  0
    6.3301    2.2500    0.0000 C   0  0  0  0  0  0  0  0  0  0  0  0
    2.8660   -1.3700    0.0000 H   0  0  0  0  0  0  0  0  0  0  0  0
    2.6540    0.8326    0.0000 H   0  0  0  0  0  0  0  0  0  0  0  0
    2.2554    0.1423    0.0000 H   0  0  0  0  0  0  0  0  0  0  0  0
    1.7880   -0.6674    0.0000 H   0  0  0  0  0  0  0  0  0  0  0  0
    1.3894   -1.3577    0.0000 H   0  0  0  0  0  0  0  0  0  0  0  0
    3.4220   -1.7869    0.0000 H   0  0  0  0  0  0  0  0  0  0  0  0
    4.2690   -1.5600    0.0000 H   0  0  0  0  0  0  0  0  0  0  0  0
    4.0420   -0.7131    0.0000 H   0  0  0  0  0  0  0  0  0  0  0  0
    1.3800   -2.2500    0.0000 H   0  0  0  0  0  0  0  0  0  0  0  0
    2.0000   -2.8700    0.0000 H   0  0  0  0  0  0  0  0  0  0  0  0
    2.6200   -2.2500    0.0000 H   0  0  0  0  0  0  0  0  0  0  0  0
    3.1760    2.7869    0.0000 H   0  0  0  0  0  0  0  0  0  0  0  0
    2.3291    2.5600    0.0000 H   0  0  0  0  0  0  0  0  0  0  0  0
    2.5560    1.7131    0.0000 H   0  0  0  0  0  0  0  0  0  0  0  0
    6.0201   -0.2869    0.0000 H   0  0  0  0  0  0  0  0  0  0  0  0
    6.8671   -0.0600    0.0000 H   0  0  0  0  0  0  0  0  0  0  0  0
    6.6401    0.7869    0.0000 H   0  0  0  0  0  0  0  0  0  0  0  0
    6.6401    1.7131    0.0000 H   0  0  0  0  0  0  0  0  0  0  0  0
    6.8671    2.5600    0.0000 H   0  0  0  0  0  0  0  0  0  0  0  0
    6.0201    2.7869    0.0000 H   0  0  0  0  0  0  0  0  0  0  0  0
  1  6  2  0  0  0  0
  1 10  1  0  0  0  0
  2  9  2  0  0  0  0
  2 11  1  0  0  0  0
  3  4  1  0  0  0  0
  3  5  1  0  0  0  0
  3  7  1  0  0  0  0
  3 15  1  0  0  0  0
  4  6  1  0  0  0  0
  4 16  1  0  0  0  0
  4 17  1  0  0  0  0
  5  8  1  0  0  0  0
  5 18  1  0  0  0  0
  5 19  1  0  0  0  0
  6  9  1  0  0  0  0
  7 20  1  0  0  0  0
  7 21  1  0  0  0  0
  7 22  1  0  0  0  0
  8 23  1  0  0  0  0
  8 24  1  0  0  0  0
  8 25  1  0  0  0  0
  9 12  1  0  0  0  0
 10 11  2  0  0  0  0
 10 13  1  0  0  0  0
 11 14  1  0  0  0  0
 12 26  1  0  0  0  0
 12 27  1  0  0  0  0
 12 28  1  0  0  0  0
 13 29  1  0  0  0  0
 13 30  1  0  0  0  0
 13 31  1  0  0  0  0
 14 32  1  0  0  0  0
 14 33  1  0  0  0  0
 14 34  1  0  0  0  0
M  END
> <PUBCHEM_COMPOUND_CID>
528105
> <PUBCHEM_COMPOUND_CANONICALIZED>
1
> <PUBCHEM_CACTVS_COMPLEXITY>
170
> <PUBCHEM_CACTVS_HBOND_ACCEPTOR>
2
> <PUBCHEM_CACTVS_HBOND_DONOR>
0
> <PUBCHEM_CACTVS_ROTATABLE_BOND>
3
> <PUBCHEM_CACTVS_SUBSKEYS>
AAADceBzAAAAAAAAAAAAAAAAAAAAAAAAAAAsAAAAAAAAAAABgAAAHAAAAAAADQiBFgACgBIIEACgAQRgRAAAgCQhECAAGAAwUAgAYEJAkACUAAAggADISAMQgAAOAAAAAAAAAAAAAAAAAAAAAAAAAAAAAA==
> <PUBCHEM_IUPAC_OPENEYE_NAME>
2,3,5-trimethyl-6-(2-methylbutyl)pyrazine
> <PUBCHEM_IUPAC_CAS_NAME>
2,3,5-trimethyl-6-(2-methylbutyl)pyrazine
> <PUBCHEM_IUPAC_NAME_MARKUP>
2,3,5-trimethyl-6-(2-methylbutyl)pyrazine
> <PUBCHEM_IUPAC_NAME>
2,3,5-trimethyl-6-(2-methylbutyl)pyrazine
> <PUBCHEM_IUPAC_SYSTEMATIC_NAME>
2,3,5-trimethyl-6-(2-methylbutyl)pyrazine
> <PUBCHEM_IUPAC_TRADITIONAL_NAME>
2,3,5-trimethyl-6-(2-methylbutyl)pyrazine
> <PUBCHEM_IUPAC_INCHI>
InChI=1S/C12H20N2/c1-6-8(2)7-12-11(5)13-9(3)10(4)14-12/h8H,6-7H2,1-5H3
> <PUBCHEM_IUPAC_INCHIKEY>
HBNTYRSZFUEIEX-UHFFFAOYSA-N
> <PUBCHEM_XLOGP3_AA>
3.2
> <PUBCHEM_EXACT_MASS>
192.162648646
> <PUBCHEM_MOLECULAR_FORMULA>
C12H20N2
> <PUBCHEM_MOLECULAR_WEIGHT>
192.30
> <PUBCHEM_OPENEYE_CAN_SMILES>
CCC(C)CC1=NC(=C(N=C1C)C)C
> <PUBCHEM_OPENEYE_ISO_SMILES>
CCC(C)CC1=NC(=C(N=C1C)C)C
> <PUBCHEM_CACTVS_TPSA>
25.8
> <PUBCHEM_MONOISOTOPIC_WEIGHT>
192.162648646
> <PUBCHEM_TOTAL_CHARGE>
0
> <PUBCHEM_HEAVY_ATOM_COUNT>
14
> <PUBCHEM_ATOM_DEF_STEREO_COUNT>
0
> <PUBCHEM_ATOM_UDEF_STEREO_COUNT>
1
> <PUBCHEM_BOND_DEF_STEREO_COUNT>
0
> <PUBCHEM_BOND_UDEF_STEREO_COUNT>
0
> <PUBCHEM_ISOTOPIC_ATOM_COUNT>
0
> <PUBCHEM_COMPONENT_COUNT>
1
> <PUBCHEM_CACTVS_TAUTO_COUNT>
-1
> <PUBCHEM_COORDINATE_TYPE>
1
5
255
> <PUBCHEM_BONDANNOTATIONS>
1  10  8
1  6  8
10  11  8
2  11  8
2  9  8
3  7  3
6  9  8
$$$$
