528148
  -OEChem-10302200292D
 29 29  0     1  0  0  0  0  0999 V2000
    7.1962    1.0000    0.0000 S   0  0  0  0  0  0  0  0  0  0  0  0
    5.4641   -1.0000    0.0000 N   0  0  0  0  0  0  0  0  0  0  0  0
    5.4641    1.0000    0.0000 N   0  0  0  0  0  0  0  0  0  0  0  0
    3.7320   -1.0000    0.0000 C   0  0  3  0  0  0  0  0  0  0  0  0
    2.8660   -0.5000    0.0000 C   0  0  0  0  0  0  0  0  0  0  0  0
    4.5981   -0.5000    0.0000 C   0  0  0  0  0  0  0  0  0  0  0  0
    3.7320   -2.0000    0.0000 C   0  0  0  0  0  0  0  0  0  0  0  0
    2.0000   -1.0000    0.0000 C   0  0  0  0  0  0  0  0  0  0  0  0
    4.5981    0.5000    0.0000 C   0  0  0  0  0  0  0  0  0  0  0  0
    6.3301   -0.5000    0.0000 C   0  0  0  0  0  0  0  0  0  0  0  0
    6.3301    0.5000    0.0000 C   0  0  0  0  0  0  0  0  0  0  0  0
    7.1962   -1.0000    0.0000 C   0  0  0  0  0  0  0  0  0  0  0  0
    7.1962    2.0000    0.0000 C   0  0  0  0  0  0  0  0  0  0  0  0
    4.2690   -1.3100    0.0000 H   0  0  0  0  0  0  0  0  0  0  0  0
    3.2646   -0.0251    0.0000 H   0  0  0  0  0  0  0  0  0  0  0  0
    2.4675   -0.0251    0.0000 H   0  0  0  0  0  0  0  0  0  0  0  0
    3.1120   -2.0000    0.0000 H   0  0  0  0  0  0  0  0  0  0  0  0
    3.7320   -2.6200    0.0000 H   0  0  0  0  0  0  0  0  0  0  0  0
    4.3520   -2.0000    0.0000 H   0  0  0  0  0  0  0  0  0  0  0  0
    1.6900   -0.4631    0.0000 H   0  0  0  0  0  0  0  0  0  0  0  0
    1.4631   -1.3100    0.0000 H   0  0  0  0  0  0  0  0  0  0  0  0
    2.3100   -1.5369    0.0000 H   0  0  0  0  0  0  0  0  0  0  0  0
    4.0611    0.8100    0.0000 H   0  0  0  0  0  0  0  0  0  0  0  0
    6.8862   -1.5369    0.0000 H   0  0  0  0  0  0  0  0  0  0  0  0
    7.7331   -1.3100    0.0000 H   0  0  0  0  0  0  0  0  0  0  0  0
    7.5062   -0.4631    0.0000 H   0  0  0  0  0  0  0  0  0  0  0  0
    7.8162    2.0000    0.0000 H   0  0  0  0  0  0  0  0  0  0  0  0
    7.1962    2.6200    0.0000 H   0  0  0  0  0  0  0  0  0  0  0  0
    6.5762    2.0000    0.0000 H   0  0  0  0  0  0  0  0  0  0  0  0
  1 11  1  0  0  0  0
  1 13  1  0  0  0  0
  2  6  1  0  0  0  0
  2 10  2  0  0  0  0
  3  9  1  0  0  0  0
  3 11  2  0  0  0  0
  4  5  1  0  0  0  0
  4  6  1  0  0  0  0
  4  7  1  0  0  0  0
  4 14  1  0  0  0  0
  5  8  1  0  0  0  0
  5 15  1  0  0  0  0
  5 16  1  0  0  0  0
  6  9  2  0  0  0  0
  7 17  1  0  0  0  0
  7 18  1  0  0  0  0
  7 19  1  0  0  0  0
  8 20  1  0  0  0  0
  8 21  1  0  0  0  0
  8 22  1  0  0  0  0
  9 23  1  0  0  0  0
 10 11  1  0  0  0  0
 10 12  1  0  0  0  0
 12 24  1  0  0  0  0
 12 25  1  0  0  0  0
 12 26  1  0  0  0  0
 13 27  1  0  0  0  0
 13 28  1  0  0  0  0
 13 29  1  0  0  0  0
M  END
> <PUBCHEM_COMPOUND_CID>
528148
> <PUBCHEM_COMPOUND_CANONICALIZED>
1
> <PUBCHEM_CACTVS_COMPLEXITY>
152
> <PUBCHEM_CACTVS_HBOND_ACCEPTOR>
3
> <PUBCHEM_CACTVS_HBOND_DONOR>
0
> <PUBCHEM_CACTVS_ROTATABLE_BOND>
3
> <PUBCHEM_CACTVS_SUBSKEYS>
AAADceBzAABAAAAAAAAAAAAAAAAAAAAAAAAsAAAAAAAAAAABgAAAHAQAAAAADQjBVgSugRIIEAigARRnRAAA0CRxGjAAUBQ4cAgAYEJgkQCUAAAAgADAQAAQAAAKAAAAAAAAAAAAAAAAAAAAAAAAAAAAAA==
> <PUBCHEM_IUPAC_OPENEYE_NAME>
3-methyl-2-methylsulfanyl-5-sec-butyl-pyrazine
> <PUBCHEM_IUPAC_CAS_NAME>
5-butan-2-yl-3-methyl-2-(methylthio)pyrazine
> <PUBCHEM_IUPAC_NAME_MARKUP>
5-butan-2-yl-3-methyl-2-methylsulfanylpyrazine
> <PUBCHEM_IUPAC_NAME>
5-butan-2-yl-3-methyl-2-methylsulfanylpyrazine
> <PUBCHEM_IUPAC_SYSTEMATIC_NAME>
5-butan-2-yl-3-methyl-2-methylsulfanyl-pyrazine
> <PUBCHEM_IUPAC_TRADITIONAL_NAME>
3-methyl-2-(methylthio)-5-sec-butyl-pyrazine
> <PUBCHEM_IUPAC_INCHI>
InChI=1S/C10H16N2S/c1-5-7(2)9-6-11-10(13-4)8(3)12-9/h6-7H,5H2,1-4H3
> <PUBCHEM_IUPAC_INCHIKEY>
IUMMRLGFGJURKP-UHFFFAOYSA-N
> <PUBCHEM_XLOGP3_AA>
2.5
> <PUBCHEM_EXACT_MASS>
196.10341969
> <PUBCHEM_MOLECULAR_FORMULA>
C10H16N2S
> <PUBCHEM_MOLECULAR_WEIGHT>
196.31
> <PUBCHEM_OPENEYE_CAN_SMILES>
CCC(C)C1=CN=C(C(=N1)C)SC
> <PUBCHEM_OPENEYE_ISO_SMILES>
CCC(C)C1=CN=C(C(=N1)C)SC
> <PUBCHEM_CACTVS_TPSA>
51.1
> <PUBCHEM_MONOISOTOPIC_WEIGHT>
196.10341969
> <PUBCHEM_TOTAL_CHARGE>
0
> <PUBCHEM_HEAVY_ATOM_COUNT>
13
> <PUBCHEM_ATOM_DEF_STEREO_COUNT>
0
> <PUBCHEM_ATOM_UDEF_STEREO_COUNT>
1
> <PUBCHEM_BOND_DEF_STEREO_COUNT>
0
> <PUBCHEM_BOND_UDEF_STEREO_COUNT>
0
> <PUBCHEM_ISOTOPIC_ATOM_COUNT>
0
> <PUBCHEM_COMPONENT_COUNT>
1
> <PUBCHEM_CACTVS_TAUTO_COUNT>
-1
> <PUBCHEM_COORDINATE_TYPE>
1
5
255
> <PUBCHEM_BONDANNOTATIONS>
10  11  8
2  10  8
2  6  8
3  11  8
3  9  8
4  7  3
6  9  8
$$$$
