528239
  -OEChem-10302200292D
 28 28  0     1  0  0  0  0  0999 V2000
    6.3301   -1.0000    0.0000 S   0  0  0  0  0  0  0  0  0  0  0  0
    5.4641   -0.5000    0.0000 C   0  0  3  0  0  0  0  0  0  0  0  0
    5.4641    0.5000    0.0000 C   0  0  0  0  0  0  0  0  0  0  0  0
    4.5981   -1.0000    0.0000 C   0  0  0  0  0  0  0  0  0  0  0  0
    6.3301    1.0000    0.0000 C   0  0  0  0  0  0  0  0  0  0  0  0
    7.1962    0.5000    0.0000 C   0  0  0  0  0  0  0  0  0  0  0  0
    7.1962   -0.5000    0.0000 C   0  0  0  0  0  0  0  0  0  0  0  0
    3.7320   -0.5000    0.0000 C   0  0  0  0  0  0  0  0  0  0  0  0
    2.8660   -1.0000    0.0000 C   0  0  0  0  0  0  0  0  0  0  0  0
    2.0000   -0.5000    0.0000 C   0  0  0  0  0  0  0  0  0  0  0  0
    5.4641   -1.1200    0.0000 H   0  0  0  0  0  0  0  0  0  0  0  0
    5.2520    1.0826    0.0000 H   0  0  0  0  0  0  0  0  0  0  0  0
    4.8535    0.3923    0.0000 H   0  0  0  0  0  0  0  0  0  0  0  0
    4.1996   -1.4750    0.0000 H   0  0  0  0  0  0  0  0  0  0  0  0
    4.9966   -1.4750    0.0000 H   0  0  0  0  0  0  0  0  0  0  0  0
    6.7287    1.4750    0.0000 H   0  0  0  0  0  0  0  0  0  0  0  0
    5.9316    1.4750    0.0000 H   0  0  0  0  0  0  0  0  0  0  0  0
    7.8067    0.3923    0.0000 H   0  0  0  0  0  0  0  0  0  0  0  0
    7.4082    1.0826    0.0000 H   0  0  0  0  0  0  0  0  0  0  0  0
    7.4082   -1.0826    0.0000 H   0  0  0  0  0  0  0  0  0  0  0  0
    7.8067   -0.3923    0.0000 H   0  0  0  0  0  0  0  0  0  0  0  0
    4.1306   -0.0251    0.0000 H   0  0  0  0  0  0  0  0  0  0  0  0
    3.3335   -0.0251    0.0000 H   0  0  0  0  0  0  0  0  0  0  0  0
    2.4675   -1.4750    0.0000 H   0  0  0  0  0  0  0  0  0  0  0  0
    3.2646   -1.4750    0.0000 H   0  0  0  0  0  0  0  0  0  0  0  0
    2.3100    0.0369    0.0000 H   0  0  0  0  0  0  0  0  0  0  0  0
    1.4631   -0.1900    0.0000 H   0  0  0  0  0  0  0  0  0  0  0  0
    1.6900   -1.0369    0.0000 H   0  0  0  0  0  0  0  0  0  0  0  0
  1  2  1  0  0  0  0
  1  7  1  0  0  0  0
  2  3  1  0  0  0  0
  2  4  1  0  0  0  0
  2 11  1  0  0  0  0
  3  5  1  0  0  0  0
  3 12  1  0  0  0  0
  3 13  1  0  0  0  0
  4  8  1  0  0  0  0
  4 14  1  0  0  0  0
  4 15  1  0  0  0  0
  5  6  1  0  0  0  0
  5 16  1  0  0  0  0
  5 17  1  0  0  0  0
  6  7  1  0  0  0  0
  6 18  1  0  0  0  0
  6 19  1  0  0  0  0
  7 20  1  0  0  0  0
  7 21  1  0  0  0  0
  8  9  1  0  0  0  0
  8 22  1  0  0  0  0
  8 23  1  0  0  0  0
  9 10  1  0  0  0  0
  9 24  1  0  0  0  0
  9 25  1  0  0  0  0
 10 26  1  0  0  0  0
 10 27  1  0  0  0  0
 10 28  1  0  0  0  0
M  END
> <PUBCHEM_COMPOUND_CID>
528239
> <PUBCHEM_COMPOUND_CANONICALIZED>
1
> <PUBCHEM_CACTVS_COMPLEXITY>
80.8
> <PUBCHEM_CACTVS_HBOND_ACCEPTOR>
1
> <PUBCHEM_CACTVS_HBOND_DONOR>
0
> <PUBCHEM_CACTVS_ROTATABLE_BOND>
3
> <PUBCHEM_CACTVS_SUBSKEYS>
AAADceBwAABAAAAAAAAAAAAAAAAAAAAAAAAkAAAAAAAAAAAAAAAAGAQAAAAACACEQACCAAAAAAgAAAAAAAAAAAAAABAAAAAAAAAAAAIgAAAAAAAAAAAgAAEAgIAAAAAAAAAAAAAAAAAAAAAAAAAAAAAAAA==
> <PUBCHEM_IUPAC_OPENEYE_NAME>
2-butyltetrahydrothiopyran
> <PUBCHEM_IUPAC_CAS_NAME>
2-butylthiane
> <PUBCHEM_IUPAC_NAME_MARKUP>
2-butylthiane
> <PUBCHEM_IUPAC_NAME>
2-butylthiane
> <PUBCHEM_IUPAC_SYSTEMATIC_NAME>
2-butylthiane
> <PUBCHEM_IUPAC_TRADITIONAL_NAME>
2-butyltetrahydrothiopyran
> <PUBCHEM_IUPAC_INCHI>
InChI=1S/C9H18S/c1-2-3-6-9-7-4-5-8-10-9/h9H,2-8H2,1H3
> <PUBCHEM_IUPAC_INCHIKEY>
SFIKCPNNQVZUDI-UHFFFAOYSA-N
> <PUBCHEM_XLOGP3_AA>
3.6
> <PUBCHEM_EXACT_MASS>
158.11292175
> <PUBCHEM_MOLECULAR_FORMULA>
C9H18S
> <PUBCHEM_MOLECULAR_WEIGHT>
158.31
> <PUBCHEM_OPENEYE_CAN_SMILES>
CCCCC1CCCCS1
> <PUBCHEM_OPENEYE_ISO_SMILES>
CCCCC1CCCCS1
> <PUBCHEM_CACTVS_TPSA>
25.3
> <PUBCHEM_MONOISOTOPIC_WEIGHT>
158.11292175
> <PUBCHEM_TOTAL_CHARGE>
0
> <PUBCHEM_HEAVY_ATOM_COUNT>
10
> <PUBCHEM_ATOM_DEF_STEREO_COUNT>
0
> <PUBCHEM_ATOM_UDEF_STEREO_COUNT>
1
> <PUBCHEM_BOND_DEF_STEREO_COUNT>
0
> <PUBCHEM_BOND_UDEF_STEREO_COUNT>
0
> <PUBCHEM_ISOTOPIC_ATOM_COUNT>
0
> <PUBCHEM_COMPONENT_COUNT>
1
> <PUBCHEM_CACTVS_TAUTO_COUNT>
-1
> <PUBCHEM_COORDINATE_TYPE>
1
5
255
> <PUBCHEM_BONDANNOTATIONS>
2  4  3
$$$$
