528201
  -OEChem-10302200292D
 77 79  0     1  0  0  0  0  0999 V2000
    3.9999   -1.9040    0.0000 Si  0  0  0  0  0  0  0  0  0  0  0  0
    8.5432    1.3554    0.0000 Si  0  0  0  0  0  0  0  0  0  0  0  0
    4.9755   -1.6848    0.0000 O   0  0  0  0  0  0  0  0  0  0  0  0
    3.4899   -1.0439    0.0000 O   0  0  0  0  0  0  0  0  0  0  0  0
    7.6772    0.8554    0.0000 O   0  0  0  0  0  0  0  0  0  0  0  0
    8.5432    2.3554    0.0000 O   0  0  0  0  0  0  0  0  0  0  0  0
    7.6772    3.8554    0.0000 O   0  0  0  0  0  0  0  0  0  0  0  0
    2.9999   -1.9156    0.0000 C   0  0  0  0  0  0  0  0  0  0  0  0
    4.2191   -2.8797    0.0000 C   0  0  0  0  0  0  0  0  0  0  0  0
    5.0686   -0.6892    0.0000 C   0  0  3  0  0  0  0  0  0  0  0  0
    4.1504   -0.2930    0.0000 C   0  0  0  0  0  0  0  0  0  0  0  0
    9.4092    1.8554    0.0000 C   0  0  0  0  0  0  0  0  0  0  0  0
    9.0432    0.4894    0.0000 C   0  0  0  0  0  0  0  0  0  0  0  0
    2.0000   -1.9271    0.0000 C   0  0  0  0  0  0  0  0  0  0  0  0
    2.4900   -1.0554    0.0000 C   0  0  0  0  0  0  0  0  0  0  0  0
    3.0116   -2.9156    0.0000 C   0  0  0  0  0  0  0  0  0  0  0  0
    4.4383   -3.8554    0.0000 C   0  0  0  0  0  0  0  0  0  0  0  0
    5.1948   -2.6605    0.0000 C   0  0  0  0  0  0  0  0  0  0  0  0
    3.4837   -3.5574    0.0000 C   0  0  0  0  0  0  0  0  0  0  0  0
    5.9288   -0.1792    0.0000 C   0  0  0  0  0  0  0  0  0  0  0  0
    5.9172    0.8207    0.0000 C   0  0  0  0  0  0  0  0  0  0  0  0
    6.8111    1.3554    0.0000 C   0  0  0  0  0  0  0  0  0  0  0  0
   10.2752    2.3554    0.0000 C   0  0  0  0  0  0  0  0  0  0  0  0
    9.4092    2.8554    0.0000 C   0  0  0  0  0  0  0  0  0  0  0  0
   10.2752    1.3554    0.0000 C   0  0  0  0  0  0  0  0  0  0  0  0
    9.5432   -0.3766    0.0000 C   0  0  0  0  0  0  0  0  0  0  0  0
    8.1772   -0.0106    0.0000 C   0  0  0  0  0  0  0  0  0  0  0  0
   10.0432    0.4894    0.0000 C   0  0  0  0  0  0  0  0  0  0  0  0
    6.8111    2.3554    0.0000 C   0  0  0  0  0  0  0  0  0  0  0  0
    7.6772    2.8554    0.0000 C   0  0  0  0  0  0  0  0  0  0  0  0
    5.0111    1.3346    0.0000 C   0  0  0  0  0  0  0  0  0  0  0  0
    5.9172    2.8901    0.0000 C   0  0  0  0  0  0  0  0  0  0  0  0
    5.0111    2.3762    0.0000 C   0  0  0  0  0  0  0  0  0  0  0  0
    5.5924   -1.0208    0.0000 H   0  0  0  0  0  0  0  0  0  0  0  0
    4.4542    0.2475    0.0000 H   0  0  0  0  0  0  0  0  0  0  0  0
    3.6446    0.0656    0.0000 H   0  0  0  0  0  0  0  0  0  0  0  0
    1.9928   -1.3072    0.0000 H   0  0  0  0  0  0  0  0  0  0  0  0
    1.3800   -1.9343    0.0000 H   0  0  0  0  0  0  0  0  0  0  0  0
    2.0072   -2.5471    0.0000 H   0  0  0  0  0  0  0  0  0  0  0  0
    3.0233   -0.7392    0.0000 H   0  0  0  0  0  0  0  0  0  0  0  0
    2.1738   -0.5221    0.0000 H   0  0  0  0  0  0  0  0  0  0  0  0
    1.9567   -1.3716    0.0000 H   0  0  0  0  0  0  0  0  0  0  0  0
    2.3916   -2.9228    0.0000 H   0  0  0  0  0  0  0  0  0  0  0  0
    3.0188   -3.5356    0.0000 H   0  0  0  0  0  0  0  0  0  0  0  0
    3.6315   -2.9084    0.0000 H   0  0  0  0  0  0  0  0  0  0  0  0
    3.8334   -3.9913    0.0000 H   0  0  0  0  0  0  0  0  0  0  0  0
    4.5742   -4.4603    0.0000 H   0  0  0  0  0  0  0  0  0  0  0  0
    5.0432   -3.7195    0.0000 H   0  0  0  0  0  0  0  0  0  0  0  0
    5.3307   -3.2654    0.0000 H   0  0  0  0  0  0  0  0  0  0  0  0
    5.7997   -2.5246    0.0000 H   0  0  0  0  0  0  0  0  0  0  0  0
    5.0588   -2.0556    0.0000 H   0  0  0  0  0  0  0  0  0  0  0  0
    3.0635   -3.1014    0.0000 H   0  0  0  0  0  0  0  0  0  0  0  0
    3.0277   -3.9775    0.0000 H   0  0  0  0  0  0  0  0  0  0  0  0
    3.9038   -4.0133    0.0000 H   0  0  0  0  0  0  0  0  0  0  0  0
    6.1475   -0.7593    0.0000 H   0  0  0  0  0  0  0  0  0  0  0  0
    6.5380   -0.0645    0.0000 H   0  0  0  0  0  0  0  0  0  0  0  0
   10.5852    1.8185    0.0000 H   0  0  0  0  0  0  0  0  0  0  0  0
   10.8122    2.6654    0.0000 H   0  0  0  0  0  0  0  0  0  0  0  0
    9.9652    2.8923    0.0000 H   0  0  0  0  0  0  0  0  0  0  0  0
   10.0292    2.8554    0.0000 H   0  0  0  0  0  0  0  0  0  0  0  0
    9.4092    3.4754    0.0000 H   0  0  0  0  0  0  0  0  0  0  0  0
    8.7892    2.8554    0.0000 H   0  0  0  0  0  0  0  0  0  0  0  0
    9.9652    0.8185    0.0000 H   0  0  0  0  0  0  0  0  0  0  0  0
   10.8122    1.0454    0.0000 H   0  0  0  0  0  0  0  0  0  0  0  0
   10.5852    1.8923    0.0000 H   0  0  0  0  0  0  0  0  0  0  0  0
    9.0062   -0.6866    0.0000 H   0  0  0  0  0  0  0  0  0  0  0  0
    9.8532   -0.9136    0.0000 H   0  0  0  0  0  0  0  0  0  0  0  0
   10.0801   -0.0666    0.0000 H   0  0  0  0  0  0  0  0  0  0  0  0
    7.8672    0.5263    0.0000 H   0  0  0  0  0  0  0  0  0  0  0  0
    7.6402   -0.3206    0.0000 H   0  0  0  0  0  0  0  0  0  0  0  0
    8.4872   -0.5476    0.0000 H   0  0  0  0  0  0  0  0  0  0  0  0
   10.0432   -0.1306    0.0000 H   0  0  0  0  0  0  0  0  0  0  0  0
   10.6632    0.4894    0.0000 H   0  0  0  0  0  0  0  0  0  0  0  0
   10.0432    1.1094    0.0000 H   0  0  0  0  0  0  0  0  0  0  0  0
    4.4754    1.0225    0.0000 H   0  0  0  0  0  0  0  0  0  0  0  0
    5.9244    3.5100    0.0000 H   0  0  0  0  0  0  0  0  0  0  0  0
    4.4754    2.6883    0.0000 H   0  0  0  0  0  0  0  0  0  0  0  0
  1  3  1  0  0  0  0
  1  4  1  0  0  0  0
  1  8  1  0  0  0  0
  1  9  1  0  0  0  0
  2  5  1  0  0  0  0
  2  6  1  0  0  0  0
  2 12  1  0  0  0  0
  2 13  1  0  0  0  0
  3 10  1  0  0  0  0
  4 11  1  0  0  0  0
  5 22  1  0  0  0  0
  6 30  1  0  0  0  0
  7 30  2  0  0  0  0
  8 14  1  0  0  0  0
  8 15  1  0  0  0  0
  8 16  1  0  0  0  0
  9 17  1  0  0  0  0
  9 18  1  0  0  0  0
  9 19  1  0  0  0  0
 10 11  1  0  0  0  0
 10 20  1  0  0  0  0
 10 34  1  0  0  0  0
 11 35  1  0  0  0  0
 11 36  1  0  0  0  0
 12 23  1  0  0  0  0
 12 24  1  0  0  0  0
 12 25  1  0  0  0  0
 13 26  1  0  0  0  0
 13 27  1  0  0  0  0
 13 28  1  0  0  0  0
 14 37  1  0  0  0  0
 14 38  1  0  0  0  0
 14 39  1  0  0  0  0
 15 40  1  0  0  0  0
 15 41  1  0  0  0  0
 15 42  1  0  0  0  0
 16 43  1  0  0  0  0
 16 44  1  0  0  0  0
 16 45  1  0  0  0  0
 17 46  1  0  0  0  0
 17 47  1  0  0  0  0
 17 48  1  0  0  0  0
 18 49  1  0  0  0  0
 18 50  1  0  0  0  0
 18 51  1  0  0  0  0
 19 52  1  0  0  0  0
 19 53  1  0  0  0  0
 19 54  1  0  0  0  0
 20 21  1  0  0  0  0
 20 55  1  0  0  0  0
 20 56  1  0  0  0  0
 21 22  2  0  0  0  0
 21 31  1  0  0  0  0
 22 29  1  0  0  0  0
 23 57  1  0  0  0  0
 23 58  1  0  0  0  0
 23 59  1  0  0  0  0
 24 60  1  0  0  0  0
 24 61  1  0  0  0  0
 24 62  1  0  0  0  0
 25 63  1  0  0  0  0
 25 64  1  0  0  0  0
 25 65  1  0  0  0  0
 26 66  1  0  0  0  0
 26 67  1  0  0  0  0
 26 68  1  0  0  0  0
 27 69  1  0  0  0  0
 27 70  1  0  0  0  0
 27 71  1  0  0  0  0
 28 72  1  0  0  0  0
 28 73  1  0  0  0  0
 28 74  1  0  0  0  0
 29 30  1  0  0  0  0
 29 32  2  0  0  0  0
 31 33  2  0  0  0  0
 31 75  1  0  0  0  0
 32 33  1  0  0  0  0
 32 76  1  0  0  0  0
 33 77  1  0  0  0  0
M  END
> <PUBCHEM_COMPOUND_CID>
528201
> <PUBCHEM_COMPOUND_CANONICALIZED>
1
> <PUBCHEM_CACTVS_COMPLEXITY>
710
> <PUBCHEM_CACTVS_HBOND_ACCEPTOR>
5
> <PUBCHEM_CACTVS_HBOND_DONOR>
0
> <PUBCHEM_CACTVS_ROTATABLE_BOND>
6
> <PUBCHEM_CACTVS_SUBSKEYS>
AAADcfB4OAwAAAAAAAAAAAAAAAAAASAAAAA0QAAAAAAAAACRAAAAGhAAAEAADBSguAIyDoAAAAGIAiDSCAACAAAkIAAIiAEECMgJJzaAFRKAMUAl4BEIiYfI6PSOAAACAAAIAAAAAAQAABAAAAAAAAAAAA==
> <PUBCHEM_IUPAC_OPENEYE_NAME>
2,2-ditert-butyl-8-[(2,2-ditert-butyl-1,3,2-dioxasilolan-4-yl)methyl]-1,3,2-benzodioxasilin-4-one
> <PUBCHEM_IUPAC_CAS_NAME>
2,2-ditert-butyl-8-[(2,2-ditert-butyl-1,3,2-dioxasilolan-4-yl)methyl]-1,3,2-benzodioxasilin-4-one
> <PUBCHEM_IUPAC_NAME_MARKUP>
2,2-di<I>tert</I>-butyl-8-[(2,2-di<I>tert</I>-butyl-1,3,2-dioxasilolan-4-yl)methyl]-1,3,2-benzodioxasilin-4-one
> <PUBCHEM_IUPAC_NAME>
2,2-ditert-butyl-8-[(2,2-ditert-butyl-1,3,2-dioxasilolan-4-yl)methyl]-1,3,2-benzodioxasilin-4-one
> <PUBCHEM_IUPAC_SYSTEMATIC_NAME>
2,2-ditert-butyl-8-[(2,2-ditert-butyl-1,3,2-dioxasilolan-4-yl)methyl]-1,3,2-benzodioxasilin-4-one
> <PUBCHEM_IUPAC_TRADITIONAL_NAME>
2,2-ditert-butyl-8-[(2,2-ditert-butyl-1,3,2-dioxasilolan-4-yl)methyl]-1,3,2-benzodioxasilin-4-one
> <PUBCHEM_IUPAC_INCHI>
InChI=1S/C26H44O5Si2/c1-23(2,3)32(24(4,5)6)28-17-19(29-32)16-18-14-13-15-20-21(18)30-33(25(7,8)9,26(10,11)12)31-22(20)27/h13-15,19H,16-17H2,1-12H3
> <PUBCHEM_IUPAC_INCHIKEY>
TVWNOCFXIYYQPX-UHFFFAOYSA-N
> <PUBCHEM_EXACT_MASS>
492.27272757
> <PUBCHEM_MOLECULAR_FORMULA>
C26H44O5Si2
> <PUBCHEM_MOLECULAR_WEIGHT>
492.8
> <PUBCHEM_OPENEYE_CAN_SMILES>
CC(C)(C)[Si]1(OCC(O1)CC2=C3C(=CC=C2)C(=O)O[Si](O3)(C(C)(C)C)C(C)(C)C)C(C)(C)C
> <PUBCHEM_OPENEYE_ISO_SMILES>
CC(C)(C)[Si]1(OCC(O1)CC2=C3C(=CC=C2)C(=O)O[Si](O3)(C(C)(C)C)C(C)(C)C)C(C)(C)C
> <PUBCHEM_CACTVS_TPSA>
54
> <PUBCHEM_MONOISOTOPIC_WEIGHT>
492.27272757
> <PUBCHEM_TOTAL_CHARGE>
0
> <PUBCHEM_HEAVY_ATOM_COUNT>
33
> <PUBCHEM_ATOM_DEF_STEREO_COUNT>
0
> <PUBCHEM_ATOM_UDEF_STEREO_COUNT>
1
> <PUBCHEM_BOND_DEF_STEREO_COUNT>
0
> <PUBCHEM_BOND_UDEF_STEREO_COUNT>
0
> <PUBCHEM_ISOTOPIC_ATOM_COUNT>
0
> <PUBCHEM_COMPONENT_COUNT>
1
> <PUBCHEM_CACTVS_TAUTO_COUNT>
-1
> <PUBCHEM_COORDINATE_TYPE>
1
5
255
> <PUBCHEM_BONDANNOTATIONS>
10  20  3
21  22  8
21  31  8
22  29  8
29  32  8
31  33  8
32  33  8
$$$$
