528220
  -OEChem-10302200292D
 47 48  0     1  0  0  0  0  0999 V2000
    3.4511    1.4081    0.0000 Si  0  0  0  0  0  0  0  0  0  0  0  0
    2.6420    0.8204    0.0000 O   0  0  0  0  0  0  0  0  0  0  0  0
    4.2601    0.8204    0.0000 O   0  0  0  0  0  0  0  0  0  0  0  0
    4.5388   -0.9397    0.0000 O   0  0  0  0  0  0  0  0  0  0  0  0
    4.3646    1.8149    0.0000 C   0  0  0  0  0  0  0  0  0  0  0  0
    2.8633    2.2172    0.0000 C   0  0  0  0  0  0  0  0  0  0  0  0
    2.9511   -0.1307    0.0000 C   0  0  3  0  0  0  0  0  0  0  0  0
    5.2782    2.2216    0.0000 C   0  0  0  0  0  0  0  0  0  0  0  0
    5.1736    1.2271    0.0000 C   0  0  0  0  0  0  0  0  0  0  0  0
    3.9579    2.7284    0.0000 C   0  0  0  0  0  0  0  0  0  0  0  0
    2.2755    3.0262    0.0000 C   0  0  0  0  0  0  0  0  0  0  0  0
    2.0542    1.6294    0.0000 C   0  0  0  0  0  0  0  0  0  0  0  0
    3.2700    3.1307    0.0000 C   0  0  0  0  0  0  0  0  0  0  0  0
    3.9511   -0.1307    0.0000 C   0  0  0  0  0  0  0  0  0  0  0  0
    2.9511   -1.1307    0.0000 C   0  0  0  0  0  0  0  0  0  0  0  0
    2.0000   -0.4397    0.0000 C   0  0  0  0  0  0  0  0  0  0  0  0
    2.0850   -1.6307    0.0000 C   0  0  0  0  0  0  0  0  0  0  0  0
    3.8171   -1.6307    0.0000 C   0  0  0  0  0  0  0  0  0  0  0  0
    2.0850   -2.6307    0.0000 C   0  0  0  0  0  0  0  0  0  0  0  0
    3.8171   -2.6307    0.0000 C   0  0  0  0  0  0  0  0  0  0  0  0
    2.9511   -3.1307    0.0000 C   0  0  0  0  0  0  0  0  0  0  0  0
    5.5303    1.6552    0.0000 H   0  0  0  0  0  0  0  0  0  0  0  0
    5.8446    2.4738    0.0000 H   0  0  0  0  0  0  0  0  0  0  0  0
    5.0260    2.7880    0.0000 H   0  0  0  0  0  0  0  0  0  0  0  0
    4.8092    0.7255    0.0000 H   0  0  0  0  0  0  0  0  0  0  0  0
    5.6752    0.8627    0.0000 H   0  0  0  0  0  0  0  0  0  0  0  0
    5.5380    1.7287    0.0000 H   0  0  0  0  0  0  0  0  0  0  0  0
    4.5243    2.9806    0.0000 H   0  0  0  0  0  0  0  0  0  0  0  0
    3.7057    3.2948    0.0000 H   0  0  0  0  0  0  0  0  0  0  0  0
    3.3915    2.4762    0.0000 H   0  0  0  0  0  0  0  0  0  0  0  0
    2.7771    3.3906    0.0000 H   0  0  0  0  0  0  0  0  0  0  0  0
    1.9111    3.5278    0.0000 H   0  0  0  0  0  0  0  0  0  0  0  0
    1.7739    2.6618    0.0000 H   0  0  0  0  0  0  0  0  0  0  0  0
    1.6898    2.1310    0.0000 H   0  0  0  0  0  0  0  0  0  0  0  0
    1.5527    1.2649    0.0000 H   0  0  0  0  0  0  0  0  0  0  0  0
    2.4187    1.1278    0.0000 H   0  0  0  0  0  0  0  0  0  0  0  0
    3.8364    2.8785    0.0000 H   0  0  0  0  0  0  0  0  0  0  0  0
    3.5222    3.6971    0.0000 H   0  0  0  0  0  0  0  0  0  0  0  0
    2.7036    3.3829    0.0000 H   0  0  0  0  0  0  0  0  0  0  0  0
    1.8084    0.1499    0.0000 H   0  0  0  0  0  0  0  0  0  0  0  0
    1.4103   -0.6313    0.0000 H   0  0  0  0  0  0  0  0  0  0  0  0
    2.1916   -1.0294    0.0000 H   0  0  0  0  0  0  0  0  0  0  0  0
    1.5481   -1.3207    0.0000 H   0  0  0  0  0  0  0  0  0  0  0  0
    4.3540   -1.3207    0.0000 H   0  0  0  0  0  0  0  0  0  0  0  0
    1.5481   -2.9407    0.0000 H   0  0  0  0  0  0  0  0  0  0  0  0
    4.3540   -2.9407    0.0000 H   0  0  0  0  0  0  0  0  0  0  0  0
    2.9511   -3.7507    0.0000 H   0  0  0  0  0  0  0  0  0  0  0  0
  1  2  1  0  0  0  0
  1  3  1  0  0  0  0
  1  5  1  0  0  0  0
  1  6  1  0  0  0  0
  2  7  1  0  0  0  0
  3 14  1  0  0  0  0
  4 14  2  0  0  0  0
  5  8  1  0  0  0  0
  5  9  1  0  0  0  0
  5 10  1  0  0  0  0
  6 11  1  0  0  0  0
  6 12  1  0  0  0  0
  6 13  1  0  0  0  0
  7 14  1  0  0  0  0
  7 15  1  0  0  0  0
  7 16  1  0  0  0  0
  8 22  1  0  0  0  0
  8 23  1  0  0  0  0
  8 24  1  0  0  0  0
  9 25  1  0  0  0  0
  9 26  1  0  0  0  0
  9 27  1  0  0  0  0
 10 28  1  0  0  0  0
 10 29  1  0  0  0  0
 10 30  1  0  0  0  0
 11 31  1  0  0  0  0
 11 32  1  0  0  0  0
 11 33  1  0  0  0  0
 12 34  1  0  0  0  0
 12 35  1  0  0  0  0
 12 36  1  0  0  0  0
 13 37  1  0  0  0  0
 13 38  1  0  0  0  0
 13 39  1  0  0  0  0
 15 17  2  0  0  0  0
 15 18  1  0  0  0  0
 16 40  1  0  0  0  0
 16 41  1  0  0  0  0
 16 42  1  0  0  0  0
 17 19  1  0  0  0  0
 17 43  1  0  0  0  0
 18 20  2  0  0  0  0
 18 44  1  0  0  0  0
 19 21  2  0  0  0  0
 19 45  1  0  0  0  0
 20 21  1  0  0  0  0
 20 46  1  0  0  0  0
 21 47  1  0  0  0  0
M  END
> <PUBCHEM_COMPOUND_CID>
528220
> <PUBCHEM_COMPOUND_CANONICALIZED>
1
> <PUBCHEM_CACTVS_COMPLEXITY>
399
> <PUBCHEM_CACTVS_HBOND_ACCEPTOR>
3
> <PUBCHEM_CACTVS_HBOND_DONOR>
0
> <PUBCHEM_CACTVS_ROTATABLE_BOND>
3
> <PUBCHEM_CACTVS_SUBSKEYS>
AAADceB4MAgAAAAAAAAAAAAAAAAAASAAAAAwAAAAAAAAAAABAAAAGhAAAEAADESAuAAyCIAAAAGIAiDSCAICAAAgAAAIiAFACIgJJjKAFRCAMAAkwAEIiAeIyOCOgAAAAAAAAAAAAAAAAAAAAAAAAAAAAA==
> <PUBCHEM_IUPAC_OPENEYE_NAME>
2,2-ditert-butyl-5-methyl-5-phenyl-1,3,2-dioxasilolan-4-one
> <PUBCHEM_IUPAC_CAS_NAME>
2,2-ditert-butyl-5-methyl-5-phenyl-1,3,2-dioxasilolan-4-one
> <PUBCHEM_IUPAC_NAME_MARKUP>
2,2-di<I>tert</I>-butyl-5-methyl-5-phenyl-1,3,2-dioxasilolan-4-one
> <PUBCHEM_IUPAC_NAME>
2,2-ditert-butyl-5-methyl-5-phenyl-1,3,2-dioxasilolan-4-one
> <PUBCHEM_IUPAC_SYSTEMATIC_NAME>
2,2-ditert-butyl-5-methyl-5-phenyl-1,3,2-dioxasilolan-4-one
> <PUBCHEM_IUPAC_TRADITIONAL_NAME>
2,2-ditert-butyl-5-methyl-5-phenyl-1,3,2-dioxasilolan-4-one
> <PUBCHEM_IUPAC_INCHI>
InChI=1S/C17H26O3Si/c1-15(2,3)21(16(4,5)6)19-14(18)17(7,20-21)13-11-9-8-10-12-13/h8-12H,1-7H3
> <PUBCHEM_IUPAC_INCHIKEY>
VQZJHCOZDVWGTN-UHFFFAOYSA-N
> <PUBCHEM_EXACT_MASS>
306.16512122
> <PUBCHEM_MOLECULAR_FORMULA>
C17H26O3Si
> <PUBCHEM_MOLECULAR_WEIGHT>
306.5
> <PUBCHEM_OPENEYE_CAN_SMILES>
CC1(C(=O)O[Si](O1)(C(C)(C)C)C(C)(C)C)C2=CC=CC=C2
> <PUBCHEM_OPENEYE_ISO_SMILES>
CC1(C(=O)O[Si](O1)(C(C)(C)C)C(C)(C)C)C2=CC=CC=C2
> <PUBCHEM_CACTVS_TPSA>
35.5
> <PUBCHEM_MONOISOTOPIC_WEIGHT>
306.16512122
> <PUBCHEM_TOTAL_CHARGE>
0
> <PUBCHEM_HEAVY_ATOM_COUNT>
21
> <PUBCHEM_ATOM_DEF_STEREO_COUNT>
0
> <PUBCHEM_ATOM_UDEF_STEREO_COUNT>
1
> <PUBCHEM_BOND_DEF_STEREO_COUNT>
0
> <PUBCHEM_BOND_UDEF_STEREO_COUNT>
0
> <PUBCHEM_ISOTOPIC_ATOM_COUNT>
0
> <PUBCHEM_COMPONENT_COUNT>
1
> <PUBCHEM_CACTVS_TAUTO_COUNT>
-1
> <PUBCHEM_COORDINATE_TYPE>
1
5
255
> <PUBCHEM_BONDANNOTATIONS>
15  17  8
15  18  8
17  19  8
18  20  8
19  21  8
20  21  8
7  16  3
$$$$
