528202
  -OEChem-10302200292D
 55 56  0     1  0  0  0  0  0999 V2000
    9.6448   -0.2072    0.0000 Si  0  0  0  0  0  0  0  0  0  0  0  0
    8.9757    0.5360    0.0000 O   0  0  0  0  0  0  0  0  0  0  0  0
    9.1448   -1.0732    0.0000 O   0  0  0  0  0  0  0  0  0  0  0  0
    5.4641    1.6292    0.0000 O   0  0  0  0  0  0  0  0  0  0  0  0
    2.8660    0.1292    0.0000 O   0  0  0  0  0  0  0  0  0  0  0  0
    3.7320    1.6292    0.0000 O   0  0  0  0  0  0  0  0  0  0  0  0
   10.1449   -1.0732    0.0000 C   0  0  0  0  0  0  0  0  0  0  0  0
   10.3880    0.4620    0.0000 C   0  0  0  0  0  0  0  0  0  0  0  0
    8.0622    0.1292    0.0000 C   0  0  3  0  0  0  0  0  0  0  0  0
    8.1667   -0.8653    0.0000 C   0  0  0  0  0  0  0  0  0  0  0  0
   10.6449   -1.9392    0.0000 C   0  0  0  0  0  0  0  0  0  0  0  0
    9.6448   -1.9392    0.0000 C   0  0  0  0  0  0  0  0  0  0  0  0
   11.0109   -0.5732    0.0000 C   0  0  0  0  0  0  0  0  0  0  0  0
   11.1311    1.1311    0.0000 C   0  0  0  0  0  0  0  0  0  0  0  0
    9.7189    1.2051    0.0000 C   0  0  0  0  0  0  0  0  0  0  0  0
   11.3391    0.1529    0.0000 C   0  0  0  0  0  0  0  0  0  0  0  0
    7.1962    0.6292    0.0000 C   0  0  0  0  0  0  0  0  0  0  0  0
    6.3301    0.1292    0.0000 C   0  0  0  0  0  0  0  0  0  0  0  0
    5.4641    0.6292    0.0000 C   0  0  0  0  0  0  0  0  0  0  0  0
    6.3301   -0.8708    0.0000 C   0  0  0  0  0  0  0  0  0  0  0  0
    4.5981    0.1292    0.0000 C   0  0  0  0  0  0  0  0  0  0  0  0
    5.4641   -1.3708    0.0000 C   0  0  0  0  0  0  0  0  0  0  0  0
    4.5981   -0.8708    0.0000 C   0  0  0  0  0  0  0  0  0  0  0  0
    3.7320    0.6292    0.0000 C   0  0  0  0  0  0  0  0  0  0  0  0
    2.0000    0.6292    0.0000 C   0  0  0  0  0  0  0  0  0  0  0  0
    8.0946    0.7484    0.0000 H   0  0  0  0  0  0  0  0  0  0  0  0
    7.5467   -0.8653    0.0000 H   0  0  0  0  0  0  0  0  0  0  0  0
    8.1019   -1.4819    0.0000 H   0  0  0  0  0  0  0  0  0  0  0  0
   10.1079   -2.2492    0.0000 H   0  0  0  0  0  0  0  0  0  0  0  0
   10.9549   -2.4762    0.0000 H   0  0  0  0  0  0  0  0  0  0  0  0
   11.1818   -1.6292    0.0000 H   0  0  0  0  0  0  0  0  0  0  0  0
    9.1079   -1.6292    0.0000 H   0  0  0  0  0  0  0  0  0  0  0  0
    9.3348   -2.4761    0.0000 H   0  0  0  0  0  0  0  0  0  0  0  0
   10.1817   -2.2492    0.0000 H   0  0  0  0  0  0  0  0  0  0  0  0
   11.3209   -1.1101    0.0000 H   0  0  0  0  0  0  0  0  0  0  0  0
   11.5478   -0.2632    0.0000 H   0  0  0  0  0  0  0  0  0  0  0  0
   10.7009   -0.0363    0.0000 H   0  0  0  0  0  0  0  0  0  0  0  0
   11.5460    0.6703    0.0000 H   0  0  0  0  0  0  0  0  0  0  0  0
   11.5919    1.5459    0.0000 H   0  0  0  0  0  0  0  0  0  0  0  0
   10.7163    1.5918    0.0000 H   0  0  0  0  0  0  0  0  0  0  0  0
   10.1796    1.6200    0.0000 H   0  0  0  0  0  0  0  0  0  0  0  0
    9.3040    1.6658    0.0000 H   0  0  0  0  0  0  0  0  0  0  0  0
    9.2581    0.7902    0.0000 H   0  0  0  0  0  0  0  0  0  0  0  0
   11.1475   -0.4367    0.0000 H   0  0  0  0  0  0  0  0  0  0  0  0
   11.9287   -0.0387    0.0000 H   0  0  0  0  0  0  0  0  0  0  0  0
   11.5306    0.7426    0.0000 H   0  0  0  0  0  0  0  0  0  0  0  0
    7.5947    1.1042    0.0000 H   0  0  0  0  0  0  0  0  0  0  0  0
    6.7976    1.1042    0.0000 H   0  0  0  0  0  0  0  0  0  0  0  0
    6.8671   -1.1808    0.0000 H   0  0  0  0  0  0  0  0  0  0  0  0
    5.4641   -1.9908    0.0000 H   0  0  0  0  0  0  0  0  0  0  0  0
    4.0611   -1.1808    0.0000 H   0  0  0  0  0  0  0  0  0  0  0  0
    6.0010    1.9392    0.0000 H   0  0  0  0  0  0  0  0  0  0  0  0
    2.3100    1.1662    0.0000 H   0  0  0  0  0  0  0  0  0  0  0  0
    1.4631    0.9392    0.0000 H   0  0  0  0  0  0  0  0  0  0  0  0
    1.6900    0.0923    0.0000 H   0  0  0  0  0  0  0  0  0  0  0  0
  1  2  1  0  0  0  0
  1  3  1  0  0  0  0
  1  7  1  0  0  0  0
  1  8  1  0  0  0  0
  2  9  1  0  0  0  0
  3 10  1  0  0  0  0
  4 19  1  0  0  0  0
  4 52  1  0  0  0  0
  5 24  1  0  0  0  0
  5 25  1  0  0  0  0
  6 24  2  0  0  0  0
  7 11  1  0  0  0  0
  7 12  1  0  0  0  0
  7 13  1  0  0  0  0
  8 14  1  0  0  0  0
  8 15  1  0  0  0  0
  8 16  1  0  0  0  0
  9 10  1  0  0  0  0
  9 17  1  0  0  0  0
  9 26  1  0  0  0  0
 10 27  1  0  0  0  0
 10 28  1  0  0  0  0
 11 29  1  0  0  0  0
 11 30  1  0  0  0  0
 11 31  1  0  0  0  0
 12 32  1  0  0  0  0
 12 33  1  0  0  0  0
 12 34  1  0  0  0  0
 13 35  1  0  0  0  0
 13 36  1  0  0  0  0
 13 37  1  0  0  0  0
 14 38  1  0  0  0  0
 14 39  1  0  0  0  0
 14 40  1  0  0  0  0
 15 41  1  0  0  0  0
 15 42  1  0  0  0  0
 15 43  1  0  0  0  0
 16 44  1  0  0  0  0
 16 45  1  0  0  0  0
 16 46  1  0  0  0  0
 17 18  1  0  0  0  0
 17 47  1  0  0  0  0
 17 48  1  0  0  0  0
 18 19  2  0  0  0  0
 18 20  1  0  0  0  0
 19 21  1  0  0  0  0
 20 22  2  0  0  0  0
 20 49  1  0  0  0  0
 21 23  2  0  0  0  0
 21 24  1  0  0  0  0
 22 23  1  0  0  0  0
 22 50  1  0  0  0  0
 23 51  1  0  0  0  0
 25 53  1  0  0  0  0
 25 54  1  0  0  0  0
 25 55  1  0  0  0  0
M  END
> <PUBCHEM_COMPOUND_CID>
528202
> <PUBCHEM_COMPOUND_CANONICALIZED>
1
> <PUBCHEM_CACTVS_COMPLEXITY>
465
> <PUBCHEM_CACTVS_HBOND_ACCEPTOR>
5
> <PUBCHEM_CACTVS_HBOND_DONOR>
1
> <PUBCHEM_CACTVS_ROTATABLE_BOND>
6
> <PUBCHEM_CACTVS_SUBSKEYS>
AAADceB4OAgAAAAAAAAAAAAAAAAAASAAAAAwAAAAAAAAAAABAAAAGhAACEAADBSguAIyDoAABgGIAiDSCAACAAAkIAAIiAEECMgJJzaCNRqAcUAl4BEIuYfI6PSOAAACAAAIAAAAAAQAABAAAAAAAAAAAA==
> <PUBCHEM_IUPAC_OPENEYE_NAME>
methyl 3-[(2,2-ditert-butyl-1,3,2-dioxasilolan-4-yl)methyl]-2-hydroxy-benzoate
> <PUBCHEM_IUPAC_CAS_NAME>
3-[(2,2-ditert-butyl-1,3,2-dioxasilolan-4-yl)methyl]-2-hydroxybenzoic acid methyl ester
> <PUBCHEM_IUPAC_NAME_MARKUP>
methyl 3-[(2,2-di<I>tert</I>-butyl-1,3,2-dioxasilolan-4-yl)methyl]-2-hydroxybenzoate
> <PUBCHEM_IUPAC_NAME>
methyl 3-[(2,2-ditert-butyl-1,3,2-dioxasilolan-4-yl)methyl]-2-hydroxybenzoate
> <PUBCHEM_IUPAC_SYSTEMATIC_NAME>
methyl 3-[(2,2-ditert-butyl-1,3,2-dioxasilolan-4-yl)methyl]-2-oxidanyl-benzoate
> <PUBCHEM_IUPAC_TRADITIONAL_NAME>
3-[(2,2-ditert-butyl-1,3,2-dioxasilolan-4-yl)methyl]-2-hydroxy-benzoic acid methyl ester
> <PUBCHEM_IUPAC_INCHI>
InChI=1S/C19H30O5Si/c1-18(2,3)25(19(4,5)6)23-12-14(24-25)11-13-9-8-10-15(16(13)20)17(21)22-7/h8-10,14,20H,11-12H2,1-7H3
> <PUBCHEM_IUPAC_INCHIKEY>
JFTRHZPZIPLBMY-UHFFFAOYSA-N
> <PUBCHEM_EXACT_MASS>
366.18625059
> <PUBCHEM_MOLECULAR_FORMULA>
C19H30O5Si
> <PUBCHEM_MOLECULAR_WEIGHT>
366.5
> <PUBCHEM_OPENEYE_CAN_SMILES>
CC(C)(C)[Si]1(OCC(O1)CC2=C(C(=CC=C2)C(=O)OC)O)C(C)(C)C
> <PUBCHEM_OPENEYE_ISO_SMILES>
CC(C)(C)[Si]1(OCC(O1)CC2=C(C(=CC=C2)C(=O)OC)O)C(C)(C)C
> <PUBCHEM_CACTVS_TPSA>
65
> <PUBCHEM_MONOISOTOPIC_WEIGHT>
366.18625059
> <PUBCHEM_TOTAL_CHARGE>
0
> <PUBCHEM_HEAVY_ATOM_COUNT>
25
> <PUBCHEM_ATOM_DEF_STEREO_COUNT>
0
> <PUBCHEM_ATOM_UDEF_STEREO_COUNT>
1
> <PUBCHEM_BOND_DEF_STEREO_COUNT>
0
> <PUBCHEM_BOND_UDEF_STEREO_COUNT>
0
> <PUBCHEM_ISOTOPIC_ATOM_COUNT>
0
> <PUBCHEM_COMPONENT_COUNT>
1
> <PUBCHEM_CACTVS_TAUTO_COUNT>
-1
> <PUBCHEM_COORDINATE_TYPE>
1
5
255
> <PUBCHEM_BONDANNOTATIONS>
18  19  8
18  20  8
19  21  8
20  22  8
21  23  8
22  23  8
9  17  3
$$$$
