528203
  -OEChem-10302200292D
 55 56  0     1  0  0  0  0  0999 V2000
    3.9253   -0.6779    0.0000 Si  0  0  0  0  0  0  0  0  0  0  0  0
    3.4914    0.2230    0.0000 O   0  0  0  0  0  0  0  0  0  0  0  0
    4.9002   -0.9004    0.0000 O   0  0  0  0  0  0  0  0  0  0  0  0
    3.6671    2.8367    0.0000 O   0  0  0  0  0  0  0  0  0  0  0  0
    7.4246   -2.3215    0.0000 O   0  0  0  0  0  0  0  0  0  0  0  0
    5.6927   -2.3015    0.0000 O   0  0  0  0  0  0  0  0  0  0  0  0
    2.9626   -0.9487    0.0000 C   0  0  0  0  0  0  0  0  0  0  0  0
    4.2201   -1.6335    0.0000 C   0  0  0  0  0  0  0  0  0  0  0  0
    2.0000   -1.2196    0.0000 C   0  0  0  0  0  0  0  0  0  0  0  0
    2.6918    0.0139    0.0000 C   0  0  0  0  0  0  0  0  0  0  0  0
    2.7159   -1.9179    0.0000 C   0  0  0  0  0  0  0  0  0  0  0  0
    4.5150   -2.5890    0.0000 C   0  0  0  0  0  0  0  0  0  0  0  0
    3.5400   -2.3665    0.0000 C   0  0  0  0  0  0  0  0  0  0  0  0
    5.2124   -1.5089    0.0000 C   0  0  0  0  0  0  0  0  0  0  0  0
    3.9253    1.1240    0.0000 C   0  0  3  0  0  0  0  0  0  0  0  0
    4.9002    1.3465    0.0000 C   0  0  0  0  0  0  0  0  0  0  0  0
    5.6820   -0.2770    0.0000 C   0  0  0  0  0  0  0  0  0  0  0  0
    5.6820    0.7230    0.0000 C   0  0  0  0  0  0  0  0  0  0  0  0
    3.3018    1.9058    0.0000 C   0  0  0  0  0  0  0  0  0  0  0  0
    6.5760   -0.8116    0.0000 C   0  0  0  0  0  0  0  0  0  0  0  0
    6.5760    1.2577    0.0000 C   0  0  0  0  0  0  0  0  0  0  0  0
    7.4820   -0.2978    0.0000 C   0  0  0  0  0  0  0  0  0  0  0  0
    7.4820    0.7439    0.0000 C   0  0  0  0  0  0  0  0  0  0  0  0
    6.5644   -1.8116    0.0000 C   0  0  0  0  0  0  0  0  0  0  0  0
    7.4130   -3.3215    0.0000 C   0  0  0  0  0  0  0  0  0  0  0  0
    1.8321   -0.6227    0.0000 H   0  0  0  0  0  0  0  0  0  0  0  0
    1.4032   -1.3875    0.0000 H   0  0  0  0  0  0  0  0  0  0  0  0
    2.1679   -1.8164    0.0000 H   0  0  0  0  0  0  0  0  0  0  0  0
    3.2886    0.1818    0.0000 H   0  0  0  0  0  0  0  0  0  0  0  0
    2.5239    0.6107    0.0000 H   0  0  0  0  0  0  0  0  0  0  0  0
    2.0950   -0.1541    0.0000 H   0  0  0  0  0  0  0  0  0  0  0  0
    2.1150   -1.7649    0.0000 H   0  0  0  0  0  0  0  0  0  0  0  0
    2.5629   -2.5187    0.0000 H   0  0  0  0  0  0  0  0  0  0  0  0
    3.3167   -2.0708    0.0000 H   0  0  0  0  0  0  0  0  0  0  0  0
    3.9226   -2.7718    0.0000 H   0  0  0  0  0  0  0  0  0  0  0  0
    4.6978   -3.1814    0.0000 H   0  0  0  0  0  0  0  0  0  0  0  0
    5.1074   -2.4062    0.0000 H   0  0  0  0  0  0  0  0  0  0  0  0
    3.0855   -1.9449    0.0000 H   0  0  0  0  0  0  0  0  0  0  0  0
    3.1184   -2.8210    0.0000 H   0  0  0  0  0  0  0  0  0  0  0  0
    3.9946   -2.7882    0.0000 H   0  0  0  0  0  0  0  0  0  0  0  0
    5.2896   -2.1241    0.0000 H   0  0  0  0  0  0  0  0  0  0  0  0
    5.8276   -1.4317    0.0000 H   0  0  0  0  0  0  0  0  0  0  0  0
    5.1352   -0.8938    0.0000 H   0  0  0  0  0  0  0  0  0  0  0  0
    3.3092    1.0546    0.0000 H   0  0  0  0  0  0  0  0  0  0  0  0
    5.3849    1.7331    0.0000 H   0  0  0  0  0  0  0  0  0  0  0  0
    4.6312    1.9051    0.0000 H   0  0  0  0  0  0  0  0  0  0  0  0
    2.7727    2.2291    0.0000 H   0  0  0  0  0  0  0  0  0  0  0  0
    2.8915    1.4410    0.0000 H   0  0  0  0  0  0  0  0  0  0  0  0
    6.5688    1.8777    0.0000 H   0  0  0  0  0  0  0  0  0  0  0  0
    8.0178   -0.6098    0.0000 H   0  0  0  0  0  0  0  0  0  0  0  0
    8.0178    1.0559    0.0000 H   0  0  0  0  0  0  0  0  0  0  0  0
    3.2806    3.3215    0.0000 H   0  0  0  0  0  0  0  0  0  0  0  0
    6.7931   -3.3143    0.0000 H   0  0  0  0  0  0  0  0  0  0  0  0
    7.4058   -3.9414    0.0000 H   0  0  0  0  0  0  0  0  0  0  0  0
    8.0330   -3.3286    0.0000 H   0  0  0  0  0  0  0  0  0  0  0  0
  1  2  1  0  0  0  0
  1  3  1  0  0  0  0
  1  7  1  0  0  0  0
  1  8  1  0  0  0  0
  2 15  1  0  0  0  0
  3 17  1  0  0  0  0
  4 19  1  0  0  0  0
  4 52  1  0  0  0  0
  5 24  1  0  0  0  0
  5 25  1  0  0  0  0
  6 24  2  0  0  0  0
  7  9  1  0  0  0  0
  7 10  1  0  0  0  0
  7 11  1  0  0  0  0
  8 12  1  0  0  0  0
  8 13  1  0  0  0  0
  8 14  1  0  0  0  0
  9 26  1  0  0  0  0
  9 27  1  0  0  0  0
  9 28  1  0  0  0  0
 10 29  1  0  0  0  0
 10 30  1  0  0  0  0
 10 31  1  0  0  0  0
 11 32  1  0  0  0  0
 11 33  1  0  0  0  0
 11 34  1  0  0  0  0
 12 35  1  0  0  0  0
 12 36  1  0  0  0  0
 12 37  1  0  0  0  0
 13 38  1  0  0  0  0
 13 39  1  0  0  0  0
 13 40  1  0  0  0  0
 14 41  1  0  0  0  0
 14 42  1  0  0  0  0
 14 43  1  0  0  0  0
 15 16  1  0  0  0  0
 15 19  1  0  0  0  0
 15 44  1  0  0  0  0
 16 18  1  0  0  0  0
 16 45  1  0  0  0  0
 16 46  1  0  0  0  0
 17 18  2  0  0  0  0
 17 20  1  0  0  0  0
 18 21  1  0  0  0  0
 19 47  1  0  0  0  0
 19 48  1  0  0  0  0
 20 22  2  0  0  0  0
 20 24  1  0  0  0  0
 21 23  2  0  0  0  0
 21 49  1  0  0  0  0
 22 23  1  0  0  0  0
 22 50  1  0  0  0  0
 23 51  1  0  0  0  0
 25 53  1  0  0  0  0
 25 54  1  0  0  0  0
 25 55  1  0  0  0  0
M  END
> <PUBCHEM_COMPOUND_CID>
528203
> <PUBCHEM_COMPOUND_CANONICALIZED>
1
> <PUBCHEM_CACTVS_COMPLEXITY>
465
> <PUBCHEM_CACTVS_HBOND_ACCEPTOR>
5
> <PUBCHEM_CACTVS_HBOND_DONOR>
1
> <PUBCHEM_CACTVS_ROTATABLE_BOND>
5
> <PUBCHEM_CACTVS_SUBSKEYS>
AAADceB4OAgAAAAAAAAAAAAAAAAAAAAAAAAwAAAABIAAAAABAAAAGhAACEAADBSguAIyDoAABgGIAiDSCAACAAAkIAAIiAEECMgJNzaANRqAcUAl4BEJqYfI6PSOAAACAAAIAAAAAAQAABAAAAAAAAAAAA==
> <PUBCHEM_IUPAC_OPENEYE_NAME>
methyl 2,2-ditert-butyl-4-(hydroxymethyl)-4,5-dihydro-1,3,2-benzodioxasilepine-9-carboxylate
> <PUBCHEM_IUPAC_CAS_NAME>
2,2-ditert-butyl-4-(hydroxymethyl)-4,5-dihydro-1,3,2-benzodioxasilepin-9-carboxylic acid methyl ester
> <PUBCHEM_IUPAC_NAME_MARKUP>
methyl 2,2-di<I>tert</I>-butyl-4-(hydroxymethyl)-4,5-dihydro-1,3,2-benzodioxasilepine-9-carboxylate
> <PUBCHEM_IUPAC_NAME>
methyl 2,2-ditert-butyl-4-(hydroxymethyl)-4,5-dihydro-1,3,2-benzodioxasilepine-9-carboxylate
> <PUBCHEM_IUPAC_SYSTEMATIC_NAME>
methyl 2,2-ditert-butyl-4-(hydroxymethyl)-4,5-dihydro-1,3,2-benzodioxasilepine-9-carboxylate
> <PUBCHEM_IUPAC_TRADITIONAL_NAME>
2,2-ditert-butyl-4-methylol-4,5-dihydro-1,3,2-benzodioxasilepin-9-carboxylic acid methyl ester
> <PUBCHEM_IUPAC_INCHI>
InChI=1S/C19H30O5Si/c1-18(2,3)25(19(4,5)6)23-14(12-20)11-13-9-8-10-15(16(13)24-25)17(21)22-7/h8-10,14,20H,11-12H2,1-7H3
> <PUBCHEM_IUPAC_INCHIKEY>
KNFJZDWVRZYTKT-UHFFFAOYSA-N
> <PUBCHEM_EXACT_MASS>
366.18625059
> <PUBCHEM_MOLECULAR_FORMULA>
C19H30O5Si
> <PUBCHEM_MOLECULAR_WEIGHT>
366.5
> <PUBCHEM_OPENEYE_CAN_SMILES>
CC(C)(C)[Si]1(OC(CC2=C(O1)C(=CC=C2)C(=O)OC)CO)C(C)(C)C
> <PUBCHEM_OPENEYE_ISO_SMILES>
CC(C)(C)[Si]1(OC(CC2=C(O1)C(=CC=C2)C(=O)OC)CO)C(C)(C)C
> <PUBCHEM_CACTVS_TPSA>
65
> <PUBCHEM_MONOISOTOPIC_WEIGHT>
366.18625059
> <PUBCHEM_TOTAL_CHARGE>
0
> <PUBCHEM_HEAVY_ATOM_COUNT>
25
> <PUBCHEM_ATOM_DEF_STEREO_COUNT>
0
> <PUBCHEM_ATOM_UDEF_STEREO_COUNT>
1
> <PUBCHEM_BOND_DEF_STEREO_COUNT>
0
> <PUBCHEM_BOND_UDEF_STEREO_COUNT>
0
> <PUBCHEM_ISOTOPIC_ATOM_COUNT>
0
> <PUBCHEM_COMPONENT_COUNT>
1
> <PUBCHEM_CACTVS_TAUTO_COUNT>
-1
> <PUBCHEM_COORDINATE_TYPE>
1
5
255
> <PUBCHEM_BONDANNOTATIONS>
15  19  3
17  18  8
17  20  8
18  21  8
20  22  8
21  23  8
22  23  8
$$$$
