528368
  -OEChem-10302200292D
 34 35  0     1  0  0  0  0  0999 V2000
    4.2294    0.0312    0.0000 O   0  0  0  0  0  0  0  0  0  0  0  0
    5.3884    1.3184    0.0000 N   0  0  0  0  0  0  0  0  0  0  0  0
    7.0634   -1.7694    0.0000 N   0  0  0  0  0  0  0  0  0  0  0  0
    6.1974    0.7306    0.0000 C   0  0  3  0  0  0  0  0  0  0  0  0
    7.0064    1.3184    0.0000 C   0  0  0  0  0  0  0  0  0  0  0  0
    6.6974    2.2694    0.0000 C   0  0  0  0  0  0  0  0  0  0  0  0
    5.6974    2.2694    0.0000 C   0  0  0  0  0  0  0  0  0  0  0  0
    6.1974   -0.2694    0.0000 C   0  0  0  0  0  0  0  0  0  0  0  0
    4.4374    1.0094    0.0000 C   0  0  0  0  0  0  0  0  0  0  0  0
    3.6942    1.6785    0.0000 C   0  0  0  0  0  0  0  0  0  0  0  0
    5.3314   -0.7694    0.0000 C   0  0  0  0  0  0  0  0  0  0  0  0
    7.0634   -0.7694    0.0000 C   0  0  0  0  0  0  0  0  0  0  0  0
    2.7431    1.3695    0.0000 C   0  0  0  0  0  0  0  0  0  0  0  0
    5.3314   -1.7694    0.0000 C   0  0  0  0  0  0  0  0  0  0  0  0
    2.0000    2.0386    0.0000 C   0  0  0  0  0  0  0  0  0  0  0  0
    6.1974   -2.2694    0.0000 C   0  0  0  0  0  0  0  0  0  0  0  0
    6.7498    0.4491    0.0000 H   0  0  0  0  0  0  0  0  0  0  0  0
    7.3164    0.7814    0.0000 H   0  0  0  0  0  0  0  0  0  0  0  0
    7.5728    1.5705    0.0000 H   0  0  0  0  0  0  0  0  0  0  0  0
    7.3039    2.3983    0.0000 H   0  0  0  0  0  0  0  0  0  0  0  0
    6.6326    2.8860    0.0000 H   0  0  0  0  0  0  0  0  0  0  0  0
    5.7622    2.8860    0.0000 H   0  0  0  0  0  0  0  0  0  0  0  0
    5.0910    2.3983    0.0000 H   0  0  0  0  0  0  0  0  0  0  0  0
    4.1828    2.0602    0.0000 H   0  0  0  0  0  0  0  0  0  0  0  0
    3.4031    2.2259    0.0000 H   0  0  0  0  0  0  0  0  0  0  0  0
    4.7945   -0.4594    0.0000 H   0  0  0  0  0  0  0  0  0  0  0  0
    7.6004   -0.4594    0.0000 H   0  0  0  0  0  0  0  0  0  0  0  0
    2.2546    0.9878    0.0000 H   0  0  0  0  0  0  0  0  0  0  0  0
    3.0342    0.8220    0.0000 H   0  0  0  0  0  0  0  0  0  0  0  0
    4.7945   -2.0794    0.0000 H   0  0  0  0  0  0  0  0  0  0  0  0
    2.4149    2.4993    0.0000 H   0  0  0  0  0  0  0  0  0  0  0  0
    1.5392    2.4534    0.0000 H   0  0  0  0  0  0  0  0  0  0  0  0
    1.5851    1.5778    0.0000 H   0  0  0  0  0  0  0  0  0  0  0  0
    6.1974   -2.8894    0.0000 H   0  0  0  0  0  0  0  0  0  0  0  0
  1  9  2  0  0  0  0
  2  4  1  0  0  0  0
  2  7  1  0  0  0  0
  2  9  1  0  0  0  0
  3 12  1  0  0  0  0
  3 16  2  0  0  0  0
  4  5  1  0  0  0  0
  4  8  1  0  0  0  0
  4 17  1  0  0  0  0
  5  6  1  0  0  0  0
  5 18  1  0  0  0  0
  5 19  1  0  0  0  0
  6  7  1  0  0  0  0
  6 20  1  0  0  0  0
  6 21  1  0  0  0  0
  7 22  1  0  0  0  0
  7 23  1  0  0  0  0
  8 11  1  0  0  0  0
  8 12  2  0  0  0  0
  9 10  1  0  0  0  0
 10 13  1  0  0  0  0
 10 24  1  0  0  0  0
 10 25  1  0  0  0  0
 11 14  2  0  0  0  0
 11 26  1  0  0  0  0
 12 27  1  0  0  0  0
 13 15  1  0  0  0  0
 13 28  1  0  0  0  0
 13 29  1  0  0  0  0
 14 16  1  0  0  0  0
 14 30  1  0  0  0  0
 15 31  1  0  0  0  0
 15 32  1  0  0  0  0
 15 33  1  0  0  0  0
 16 34  1  0  0  0  0
M  END
> <PUBCHEM_COMPOUND_CID>
528368
> <PUBCHEM_COMPOUND_CANONICALIZED>
1
> <PUBCHEM_CACTVS_COMPLEXITY>
242
> <PUBCHEM_CACTVS_HBOND_ACCEPTOR>
2
> <PUBCHEM_CACTVS_HBOND_DONOR>
0
> <PUBCHEM_CACTVS_ROTATABLE_BOND>
3
> <PUBCHEM_CACTVS_SUBSKEYS>
AAADceBzIAAAAAAAAAAAAAAAAAAAAWAAAAAsAAAAAAAAAAABgAAAHgAAAAAADCjBmgQ+gJMIEACoAjF3VACCgCAxAiAI2CE4ZJgIIPLA0ZGEIAhghgDIyAcQgIAOAAAAAAAAAAAAAAAAAAAAAAAAAAAAAA==
> <PUBCHEM_IUPAC_OPENEYE_NAME>
1-[2-(3-pyridyl)pyrrolidin-1-yl]butan-1-one
> <PUBCHEM_IUPAC_CAS_NAME>
1-[2-(3-pyridinyl)-1-pyrrolidinyl]-1-butanone
> <PUBCHEM_IUPAC_NAME_MARKUP>
1-(2-pyridin-3-ylpyrrolidin-1-yl)butan-1-one
> <PUBCHEM_IUPAC_NAME>
1-(2-pyridin-3-ylpyrrolidin-1-yl)butan-1-one
> <PUBCHEM_IUPAC_SYSTEMATIC_NAME>
1-(2-pyridin-3-ylpyrrolidin-1-yl)butan-1-one
> <PUBCHEM_IUPAC_TRADITIONAL_NAME>
1-[2-(3-pyridyl)pyrrolidino]butan-1-one
> <PUBCHEM_IUPAC_INCHI>
InChI=1S/C13H18N2O/c1-2-5-13(16)15-9-4-7-12(15)11-6-3-8-14-10-11/h3,6,8,10,12H,2,4-5,7,9H2,1H3
> <PUBCHEM_IUPAC_INCHIKEY>
MIRXCTXDBCQAAR-UHFFFAOYSA-N
> <PUBCHEM_XLOGP3_AA>
1.5
> <PUBCHEM_EXACT_MASS>
218.141913202
> <PUBCHEM_MOLECULAR_FORMULA>
C13H18N2O
> <PUBCHEM_MOLECULAR_WEIGHT>
218.29
> <PUBCHEM_OPENEYE_CAN_SMILES>
CCCC(=O)N1CCCC1C2=CN=CC=C2
> <PUBCHEM_OPENEYE_ISO_SMILES>
CCCC(=O)N1CCCC1C2=CN=CC=C2
> <PUBCHEM_CACTVS_TPSA>
33.2
> <PUBCHEM_MONOISOTOPIC_WEIGHT>
218.141913202
> <PUBCHEM_TOTAL_CHARGE>
0
> <PUBCHEM_HEAVY_ATOM_COUNT>
16
> <PUBCHEM_ATOM_DEF_STEREO_COUNT>
0
> <PUBCHEM_ATOM_UDEF_STEREO_COUNT>
1
> <PUBCHEM_BOND_DEF_STEREO_COUNT>
0
> <PUBCHEM_BOND_UDEF_STEREO_COUNT>
0
> <PUBCHEM_ISOTOPIC_ATOM_COUNT>
0
> <PUBCHEM_COMPONENT_COUNT>
1
> <PUBCHEM_CACTVS_TAUTO_COUNT>
-1
> <PUBCHEM_COORDINATE_TYPE>
1
5
255
> <PUBCHEM_BONDANNOTATIONS>
11  14  8
14  16  8
3  12  8
3  16  8
4  8  3
8  11  8
8  12  8
$$$$
