528364
  -OEChem-10302200292D
 29 30  0     1  0  0  0  0  0999 V2000
    4.5981   -1.7500    0.0000 O   0  0  0  0  0  0  0  0  0  0  0  0
    5.4641   -0.2500    0.0000 N   0  0  0  0  0  0  0  0  0  0  0  0
    2.8660   -1.7500    0.0000 N   0  0  0  0  0  0  0  0  0  0  0  0
    4.5981    0.2500    0.0000 C   0  0  3  0  0  0  0  0  0  0  0  0
    4.5981    1.2500    0.0000 C   0  0  0  0  0  0  0  0  0  0  0  0
    6.3301    0.2500    0.0000 C   0  0  0  0  0  0  0  0  0  0  0  0
    3.7320   -0.2500    0.0000 C   0  0  0  0  0  0  0  0  0  0  0  0
    5.4641    1.7500    0.0000 C   0  0  0  0  0  0  0  0  0  0  0  0
    6.3301    1.2500    0.0000 C   0  0  0  0  0  0  0  0  0  0  0  0
    5.4641   -1.2500    0.0000 C   0  0  0  0  0  0  0  0  0  0  0  0
    2.8660    0.2500    0.0000 C   0  0  0  0  0  0  0  0  0  0  0  0
    3.7320   -1.2500    0.0000 C   0  0  0  0  0  0  0  0  0  0  0  0
    6.3301   -1.7500    0.0000 C   0  0  0  0  0  0  0  0  0  0  0  0
    2.0000   -0.2500    0.0000 C   0  0  0  0  0  0  0  0  0  0  0  0
    2.0000   -1.2500    0.0000 C   0  0  0  0  0  0  0  0  0  0  0  0
    4.5981   -0.3700    0.0000 H   0  0  0  0  0  0  0  0  0  0  0  0
    4.3860    1.8326    0.0000 H   0  0  0  0  0  0  0  0  0  0  0  0
    3.9875    1.1423    0.0000 H   0  0  0  0  0  0  0  0  0  0  0  0
    6.5422   -0.3326    0.0000 H   0  0  0  0  0  0  0  0  0  0  0  0
    6.9407    0.3577    0.0000 H   0  0  0  0  0  0  0  0  0  0  0  0
    5.4641    2.3700    0.0000 H   0  0  0  0  0  0  0  0  0  0  0  0
    6.8671    1.5600    0.0000 H   0  0  0  0  0  0  0  0  0  0  0  0
    2.8660    0.8700    0.0000 H   0  0  0  0  0  0  0  0  0  0  0  0
    4.2690   -1.5600    0.0000 H   0  0  0  0  0  0  0  0  0  0  0  0
    6.0201   -2.2869    0.0000 H   0  0  0  0  0  0  0  0  0  0  0  0
    6.8671   -2.0600    0.0000 H   0  0  0  0  0  0  0  0  0  0  0  0
    6.6401   -1.2131    0.0000 H   0  0  0  0  0  0  0  0  0  0  0  0
    1.4631    0.0600    0.0000 H   0  0  0  0  0  0  0  0  0  0  0  0
    1.4631   -1.5600    0.0000 H   0  0  0  0  0  0  0  0  0  0  0  0
  1 10  2  0  0  0  0
  2  4  1  0  0  0  0
  2  6  1  0  0  0  0
  2 10  1  0  0  0  0
  3 12  1  0  0  0  0
  3 15  2  0  0  0  0
  4  5  1  0  0  0  0
  4  7  1  0  0  0  0
  4 16  1  0  0  0  0
  5  8  1  0  0  0  0
  5 17  1  0  0  0  0
  5 18  1  0  0  0  0
  6  9  1  0  0  0  0
  6 19  1  0  0  0  0
  6 20  1  0  0  0  0
  7 11  1  0  0  0  0
  7 12  2  0  0  0  0
  8  9  2  0  0  0  0
  8 21  1  0  0  0  0
  9 22  1  0  0  0  0
 10 13  1  0  0  0  0
 11 14  2  0  0  0  0
 11 23  1  0  0  0  0
 12 24  1  0  0  0  0
 13 25  1  0  0  0  0
 13 26  1  0  0  0  0
 13 27  1  0  0  0  0
 14 15  1  0  0  0  0
 14 28  1  0  0  0  0
 15 29  1  0  0  0  0
M  END
> <PUBCHEM_COMPOUND_CID>
528364
> <PUBCHEM_COMPOUND_CANONICALIZED>
1
> <PUBCHEM_CACTVS_COMPLEXITY>
262
> <PUBCHEM_CACTVS_HBOND_ACCEPTOR>
2
> <PUBCHEM_CACTVS_HBOND_DONOR>
0
> <PUBCHEM_CACTVS_ROTATABLE_BOND>
1
> <PUBCHEM_CACTVS_SUBSKEYS>
AAADccBzIAAAAAAAAAAAAAAAAAAAAAAAAAAsQAAAAAAAAAABgAAAHgAAAAAADCjBmgQ+gJMIEACoAjF3VACCgCAxAiAI2CA4ZJgIIOLA0ZGEIAhghgDIyAcQgAAOAAAAAAAAAAAAAAAAAAAAAAAAAAAAAA==
> <PUBCHEM_IUPAC_OPENEYE_NAME>
1-[2-(3-pyridyl)-3,6-dihydro-2H-pyridin-1-yl]ethanone
> <PUBCHEM_IUPAC_CAS_NAME>
1-[2-(3-pyridinyl)-3,6-dihydro-2H-pyridin-1-yl]ethanone
> <PUBCHEM_IUPAC_NAME_MARKUP>
1-(2-pyridin-3-yl-3,6-dihydro-2<I>H</I>-pyridin-1-yl)ethanone
> <PUBCHEM_IUPAC_NAME>
1-(2-pyridin-3-yl-3,6-dihydro-2H-pyridin-1-yl)ethanone
> <PUBCHEM_IUPAC_SYSTEMATIC_NAME>
1-(2-pyridin-3-yl-3,6-dihydro-2H-pyridin-1-yl)ethanone
> <PUBCHEM_IUPAC_TRADITIONAL_NAME>
1-[2-(3-pyridyl)-3,6-dihydro-2H-pyridin-1-yl]ethanone
> <PUBCHEM_IUPAC_INCHI>
InChI=1S/C12H14N2O/c1-10(15)14-8-3-2-6-12(14)11-5-4-7-13-9-11/h2-5,7,9,12H,6,8H2,1H3
> <PUBCHEM_IUPAC_INCHIKEY>
CAYYVQDGGHLYMO-UHFFFAOYSA-N
> <PUBCHEM_XLOGP3_AA>
0.9
> <PUBCHEM_EXACT_MASS>
202.110613074
> <PUBCHEM_MOLECULAR_FORMULA>
C12H14N2O
> <PUBCHEM_MOLECULAR_WEIGHT>
202.25
> <PUBCHEM_OPENEYE_CAN_SMILES>
CC(=O)N1CC=CCC1C2=CN=CC=C2
> <PUBCHEM_OPENEYE_ISO_SMILES>
CC(=O)N1CC=CCC1C2=CN=CC=C2
> <PUBCHEM_CACTVS_TPSA>
33.2
> <PUBCHEM_MONOISOTOPIC_WEIGHT>
202.110613074
> <PUBCHEM_TOTAL_CHARGE>
0
> <PUBCHEM_HEAVY_ATOM_COUNT>
15
> <PUBCHEM_ATOM_DEF_STEREO_COUNT>
0
> <PUBCHEM_ATOM_UDEF_STEREO_COUNT>
1
> <PUBCHEM_BOND_DEF_STEREO_COUNT>
0
> <PUBCHEM_BOND_UDEF_STEREO_COUNT>
0
> <PUBCHEM_ISOTOPIC_ATOM_COUNT>
0
> <PUBCHEM_COMPONENT_COUNT>
1
> <PUBCHEM_CACTVS_TAUTO_COUNT>
-1
> <PUBCHEM_COORDINATE_TYPE>
1
5
255
> <PUBCHEM_BONDANNOTATIONS>
11  14  8
14  15  8
3  12  8
3  15  8
4  7  3
7  11  8
7  12  8
$$$$
