528352
  -OEChem-10302200292D
 29 31  0     1  0  0  0  0  0999 V2000
    4.3801    1.5691    0.0000 O   0  0  0  0  0  0  0  0  0  0  0  0
    2.0000   -2.0691    0.0000 O   0  0  0  0  0  0  0  0  0  0  0  0
    4.3801    0.5691    0.0000 C   0  0  0  0  0  0  0  0  0  0  0  0
    5.2163   -0.8792    0.0000 C   0  0  0  0  0  0  0  0  0  0  0  0
    3.5439   -0.8792    0.0000 C   0  0  3  0  0  0  0  0  0  0  0  0
    3.6890   -1.3143    0.0000 C   0  0  3  0  0  0  0  0  0  0  0  0
    5.2163    0.0863    0.0000 C   0  0  0  0  0  0  0  0  0  0  0  0
    3.5439    0.0863    0.0000 C   0  0  0  0  0  0  0  0  0  0  0  0
    3.6890   -0.2690    0.0000 C   0  0  0  0  0  0  0  0  0  0  0  0
    4.3801   -1.1820    0.0000 C   0  0  0  0  0  0  0  0  0  0  0  0
    4.5947   -1.7911    0.0000 C   0  0  0  0  0  0  0  0  0  0  0  0
    2.7071   -1.3620    0.0000 C   0  0  0  0  0  0  0  0  0  0  0  0
    5.2461    2.0691    0.0000 C   0  0  0  0  0  0  0  0  0  0  0  0
    5.8087   -1.0619    0.0000 H   0  0  0  0  0  0  0  0  0  0  0  0
    4.0515   -0.5232    0.0000 H   0  0  0  0  0  0  0  0  0  0  0  0
    3.5549   -1.9196    0.0000 H   0  0  0  0  0  0  0  0  0  0  0  0
    5.8269   -0.0213    0.0000 H   0  0  0  0  0  0  0  0  0  0  0  0
    5.4283    0.6689    0.0000 H   0  0  0  0  0  0  0  0  0  0  0  0
    3.3318    0.6689    0.0000 H   0  0  0  0  0  0  0  0  0  0  0  0
    2.9333   -0.0213    0.0000 H   0  0  0  0  0  0  0  0  0  0  0  0
    3.3454    0.2470    0.0000 H   0  0  0  0  0  0  0  0  0  0  0  0
    3.0956   -0.4485    0.0000 H   0  0  0  0  0  0  0  0  0  0  0  0
    4.0101   -1.6795    0.0000 H   0  0  0  0  0  0  0  0  0  0  0  0
    4.7501   -1.6795    0.0000 H   0  0  0  0  0  0  0  0  0  0  0  0
    4.2853   -2.3284    0.0000 H   0  0  0  0  0  0  0  0  0  0  0  0
    5.1198   -2.1207    0.0000 H   0  0  0  0  0  0  0  0  0  0  0  0
    5.5561    1.5322    0.0000 H   0  0  0  0  0  0  0  0  0  0  0  0
    5.7830    2.3791    0.0000 H   0  0  0  0  0  0  0  0  0  0  0  0
    4.9361    2.6060    0.0000 H   0  0  0  0  0  0  0  0  0  0  0  0
  1  3  1  0  0  0  0
  1 13  1  0  0  0  0
  2 12  2  0  0  0  0
  3  7  1  0  0  0  0
  3  8  1  0  0  0  0
  3  9  1  0  0  0  0
  4  7  1  0  0  0  0
  4 10  1  0  0  0  0
  4 11  1  0  0  0  0
  4 14  1  0  0  0  0
  5  8  1  0  0  0  0
  5 10  1  0  0  0  0
  5 12  1  0  0  0  0
  5 15  1  0  0  0  0
  6  9  1  0  0  0  0
  6 11  1  0  0  0  0
  6 12  1  0  0  0  0
  6 16  1  0  0  0  0
  7 17  1  0  0  0  0
  7 18  1  0  0  0  0
  8 19  1  0  0  0  0
  8 20  1  0  0  0  0
  9 21  1  0  0  0  0
  9 22  1  0  0  0  0
 10 23  1  0  0  0  0
 10 24  1  0  0  0  0
 11 25  1  0  0  0  0
 11 26  1  0  0  0  0
 13 27  1  0  0  0  0
 13 28  1  0  0  0  0
 13 29  1  0  0  0  0
M  END
> <PUBCHEM_COMPOUND_CID>
528352
> <PUBCHEM_COMPOUND_CANONICALIZED>
1
> <PUBCHEM_CACTVS_COMPLEXITY>
241
> <PUBCHEM_CACTVS_HBOND_ACCEPTOR>
2
> <PUBCHEM_CACTVS_HBOND_DONOR>
0
> <PUBCHEM_CACTVS_ROTATABLE_BOND>
1
> <PUBCHEM_CACTVS_SUBSKEYS>
AAADceBwMAAAAAAAAAAAAAAAAAAAAAAAAAAwYMGAAAAAAAAAAAAAGgAAAAAADUSAgAICAAAABAAIAIAQAAAAAAAAAAAAAAEAAAAAABIAAAAAAAAEAAAAAAGKyPCOAAAAAAAAAAAAAAYAAAAAAAAAAAAAAA==
> <PUBCHEM_IUPAC_OPENEYE_NAME>
5-methoxyadamantan-2-one
> <PUBCHEM_IUPAC_CAS_NAME>
5-methoxy-2-adamantanone
> <PUBCHEM_IUPAC_NAME_MARKUP>
5-methoxyadamantan-2-one
> <PUBCHEM_IUPAC_NAME>
5-methoxyadamantan-2-one
> <PUBCHEM_IUPAC_SYSTEMATIC_NAME>
5-methoxyadamantan-2-one
> <PUBCHEM_IUPAC_TRADITIONAL_NAME>
5-methoxyadamantan-2-one
> <PUBCHEM_IUPAC_INCHI>
InChI=1S/C11H16O2/c1-13-11-4-7-2-8(5-11)10(12)9(3-7)6-11/h7-9H,2-6H2,1H3
> <PUBCHEM_IUPAC_INCHIKEY>
PKPPAWGCOMEBLA-UHFFFAOYSA-N
> <PUBCHEM_XLOGP3_AA>
1.1
> <PUBCHEM_EXACT_MASS>
180.115029749
> <PUBCHEM_MOLECULAR_FORMULA>
C11H16O2
> <PUBCHEM_MOLECULAR_WEIGHT>
180.24
> <PUBCHEM_OPENEYE_CAN_SMILES>
COC12CC3CC(C1)C(=O)C(C3)C2
> <PUBCHEM_OPENEYE_ISO_SMILES>
COC12CC3CC(C1)C(=O)C(C3)C2
> <PUBCHEM_CACTVS_TPSA>
26.3
> <PUBCHEM_MONOISOTOPIC_WEIGHT>
180.115029749
> <PUBCHEM_TOTAL_CHARGE>
0
> <PUBCHEM_HEAVY_ATOM_COUNT>
13
> <PUBCHEM_ATOM_DEF_STEREO_COUNT>
0
> <PUBCHEM_ATOM_UDEF_STEREO_COUNT>
2
> <PUBCHEM_BOND_DEF_STEREO_COUNT>
0
> <PUBCHEM_BOND_UDEF_STEREO_COUNT>
0
> <PUBCHEM_ISOTOPIC_ATOM_COUNT>
0
> <PUBCHEM_COMPONENT_COUNT>
1
> <PUBCHEM_CACTVS_TAUTO_COUNT>
-1
> <PUBCHEM_COORDINATE_TYPE>
1
5
255
> <PUBCHEM_BONDANNOTATIONS>
5  10  3
6  11  3
$$$$
