528358
  -OEChem-10302200292D
 17 17  0     1  0  0  0  0  0999 V2000
    3.6828   -1.0005    0.0000 S   0  0  0  0  0  0  0  0  0  0  0  0
    4.5838   -0.5666    0.0000 S   0  0  0  0  0  0  0  0  0  0  0  0
    2.5593    0.4083    0.0000 S   0  0  0  0  0  0  0  0  0  0  0  0
    4.1828    1.1901    0.0000 S   0  0  0  0  0  0  0  0  0  0  0  0
    3.1828    1.1901    0.0000 S   0  0  0  0  0  0  0  0  0  0  0  0
    2.7818   -0.5666    0.0000 C   0  0  3  0  0  0  0  0  0  0  0  0
    4.8063    0.4083    0.0000 C   0  0  3  0  0  0  0  0  0  0  0  0
    2.0000   -1.1901    0.0000 C   0  0  0  0  0  0  0  0  0  0  0  0
    5.7812    0.6308    0.0000 C   0  0  0  0  0  0  0  0  0  0  0  0
    2.1966   -0.3619    0.0000 H   0  0  0  0  0  0  0  0  0  0  0  0
    5.0111    0.9935    0.0000 H   0  0  0  0  0  0  0  0  0  0  0  0
    1.6134   -0.7054    0.0000 H   0  0  0  0  0  0  0  0  0  0  0  0
    1.5153   -1.5767    0.0000 H   0  0  0  0  0  0  0  0  0  0  0  0
    2.3866   -1.6749    0.0000 H   0  0  0  0  0  0  0  0  0  0  0  0
    5.9192    0.0264    0.0000 H   0  0  0  0  0  0  0  0  0  0  0  0
    6.3857    0.7688    0.0000 H   0  0  0  0  0  0  0  0  0  0  0  0
    5.6433    1.2353    0.0000 H   0  0  0  0  0  0  0  0  0  0  0  0
  1  2  1  0  0  0  0
  1  6  1  0  0  0  0
  2  7  1  0  0  0  0
  3  5  1  0  0  0  0
  3  6  1  0  0  0  0
  4  5  1  0  0  0  0
  4  7  1  0  0  0  0
  6  8  1  0  0  0  0
  6 10  1  0  0  0  0
  7  9  1  0  0  0  0
  7 11  1  0  0  0  0
  8 12  1  0  0  0  0
  8 13  1  0  0  0  0
  8 14  1  0  0  0  0
  9 15  1  0  0  0  0
  9 16  1  0  0  0  0
  9 17  1  0  0  0  0
M  END
> <PUBCHEM_COMPOUND_CID>
528358
> <PUBCHEM_COMPOUND_CANONICALIZED>
1
> <PUBCHEM_CACTVS_COMPLEXITY>
75
> <PUBCHEM_CACTVS_HBOND_ACCEPTOR>
5
> <PUBCHEM_CACTVS_HBOND_DONOR>
0
> <PUBCHEM_CACTVS_ROTATABLE_BOND>
0
> <PUBCHEM_CACTVS_SUBSKEYS>
AAADccBgAABwAAAAAAAAAAAAAAAAAAAAAAAAAAAABIAAAAAAAAAAGAQAAAAAAACEQACCAAAAAAAAAAAAAAAAAAAAAAAAAAAAAAAAAAAAAAAAAAAAAAAAAAAAAAAAAAAAAAAAAAAAAAAAAAAAAAAAAAAAAA==
> <PUBCHEM_IUPAC_OPENEYE_NAME>
4,7-dimethyl-1,2,3,5,6-pentathiepane
> <PUBCHEM_IUPAC_CAS_NAME>
4,7-dimethyl-1,2,3,5,6-pentathiepane
> <PUBCHEM_IUPAC_NAME_MARKUP>
4,7-dimethyl-1,2,3,5,6-pentathiepane
> <PUBCHEM_IUPAC_NAME>
4,7-dimethyl-1,2,3,5,6-pentathiepane
> <PUBCHEM_IUPAC_SYSTEMATIC_NAME>
4,7-dimethyl-1,2,3,5,6-pentathiepane
> <PUBCHEM_IUPAC_TRADITIONAL_NAME>
4,7-dimethyl-1,2,3,5,6-pentathiepane
> <PUBCHEM_IUPAC_INCHI>
InChI=1S/C4H8S5/c1-3-5-6-4(2)8-9-7-3/h3-4H,1-2H3
> <PUBCHEM_IUPAC_INCHIKEY>
NGHSPVUOJNZCHU-UHFFFAOYSA-N
> <PUBCHEM_XLOGP3_AA>
2.9
> <PUBCHEM_EXACT_MASS>
215.92295612
> <PUBCHEM_MOLECULAR_FORMULA>
C4H8S5
> <PUBCHEM_MOLECULAR_WEIGHT>
216.4
> <PUBCHEM_OPENEYE_CAN_SMILES>
CC1SSC(SSS1)C
> <PUBCHEM_OPENEYE_ISO_SMILES>
CC1SSC(SSS1)C
> <PUBCHEM_CACTVS_TPSA>
127
> <PUBCHEM_MONOISOTOPIC_WEIGHT>
215.92295612
> <PUBCHEM_TOTAL_CHARGE>
0
> <PUBCHEM_HEAVY_ATOM_COUNT>
9
> <PUBCHEM_ATOM_DEF_STEREO_COUNT>
0
> <PUBCHEM_ATOM_UDEF_STEREO_COUNT>
2
> <PUBCHEM_BOND_DEF_STEREO_COUNT>
0
> <PUBCHEM_BOND_UDEF_STEREO_COUNT>
0
> <PUBCHEM_ISOTOPIC_ATOM_COUNT>
0
> <PUBCHEM_COMPONENT_COUNT>
1
> <PUBCHEM_CACTVS_TAUTO_COUNT>
-1
> <PUBCHEM_COORDINATE_TYPE>
1
5
255
> <PUBCHEM_BONDANNOTATIONS>
6  8  3
7  9  3
$$$$
