528372
  -OEChem-10302200292D
 40 40  0     1  0  0  0  0  0999 V2000
    2.7431    0.4521    0.0000 Si  0  0  0  0  0  0  0  0  0  0  0  0
    8.7006    0.1430    0.0000 Si  0  0  0  0  0  0  0  0  0  0  0  0
    3.4863   -0.2171    0.0000 O   0  0  0  0  0  0  0  0  0  0  0  0
    7.7496    0.4521    0.0000 O   0  0  0  0  0  0  0  0  0  0  0  0
    7.2144   -1.1952    0.0000 O   0  0  0  0  0  0  0  0  0  0  0  0
    5.2464   -0.4958    0.0000 N   0  0  0  0  0  0  0  0  0  0  0  0
    6.0554    0.0920    0.0000 C   0  0  3  0  0  0  0  0  0  0  0  0
    5.7464    1.0430    0.0000 C   0  0  0  0  0  0  0  0  0  0  0  0
    4.7464    1.0430    0.0000 C   0  0  0  0  0  0  0  0  0  0  0  0
    4.4374    0.0920    0.0000 C   0  0  0  0  0  0  0  0  0  0  0  0
    7.0064   -0.2171    0.0000 C   0  0  0  0  0  0  0  0  0  0  0  0
    2.0000    1.1212    0.0000 C   0  0  0  0  0  0  0  0  0  0  0  0
    2.0740   -0.2911    0.0000 C   0  0  0  0  0  0  0  0  0  0  0  0
    3.4123    1.1952    0.0000 C   0  0  0  0  0  0  0  0  0  0  0  0
    9.6517   -0.1660    0.0000 C   0  0  0  0  0  0  0  0  0  0  0  0
    9.0096    1.0941    0.0000 C   0  0  0  0  0  0  0  0  0  0  0  0
    8.3916   -0.8080    0.0000 C   0  0  0  0  0  0  0  0  0  0  0  0
    6.1524   -0.5204    0.0000 H   0  0  0  0  0  0  0  0  0  0  0  0
    6.3528    1.1719    0.0000 H   0  0  0  0  0  0  0  0  0  0  0  0
    5.6816    1.6596    0.0000 H   0  0  0  0  0  0  0  0  0  0  0  0
    4.8112    1.6596    0.0000 H   0  0  0  0  0  0  0  0  0  0  0  0
    4.1399    1.1719    0.0000 H   0  0  0  0  0  0  0  0  0  0  0  0
    2.4149    1.5820    0.0000 H   0  0  0  0  0  0  0  0  0  0  0  0
    1.5392    1.5361    0.0000 H   0  0  0  0  0  0  0  0  0  0  0  0
    1.5851    0.6604    0.0000 H   0  0  0  0  0  0  0  0  0  0  0  0
    1.6133    0.1238    0.0000 H   0  0  0  0  0  0  0  0  0  0  0  0
    1.6592   -0.7518    0.0000 H   0  0  0  0  0  0  0  0  0  0  0  0
    2.5348   -0.7059    0.0000 H   0  0  0  0  0  0  0  0  0  0  0  0
    3.8730    0.7804    0.0000 H   0  0  0  0  0  0  0  0  0  0  0  0
    3.8271    1.6560    0.0000 H   0  0  0  0  0  0  0  0  0  0  0  0
    2.9515    1.6101    0.0000 H   0  0  0  0  0  0  0  0  0  0  0  0
    9.4601   -0.7556    0.0000 H   0  0  0  0  0  0  0  0  0  0  0  0
   10.2413   -0.3576    0.0000 H   0  0  0  0  0  0  0  0  0  0  0  0
    9.8433    0.4237    0.0000 H   0  0  0  0  0  0  0  0  0  0  0  0
    9.5993    0.9025    0.0000 H   0  0  0  0  0  0  0  0  0  0  0  0
    9.2012    1.6838    0.0000 H   0  0  0  0  0  0  0  0  0  0  0  0
    8.4200    1.2857    0.0000 H   0  0  0  0  0  0  0  0  0  0  0  0
    7.8020   -0.6164    0.0000 H   0  0  0  0  0  0  0  0  0  0  0  0
    8.2000   -1.3977    0.0000 H   0  0  0  0  0  0  0  0  0  0  0  0
    8.9813   -0.9996    0.0000 H   0  0  0  0  0  0  0  0  0  0  0  0
  1  3  1  0  0  0  0
  1 12  1  0  0  0  0
  1 13  1  0  0  0  0
  1 14  1  0  0  0  0
  2  4  1  0  0  0  0
  2 15  1  0  0  0  0
  2 16  1  0  0  0  0
  2 17  1  0  0  0  0
  3 10  1  0  0  0  0
  4 11  1  0  0  0  0
  5 11  2  0  0  0  0
  6  7  1  0  0  0  0
  6 10  2  0  0  0  0
  7  8  1  0  0  0  0
  7 11  1  0  0  0  0
  7 18  1  0  0  0  0
  8  9  1  0  0  0  0
  8 19  1  0  0  0  0
  8 20  1  0  0  0  0
  9 10  1  0  0  0  0
  9 21  1  0  0  0  0
  9 22  1  0  0  0  0
 12 23  1  0  0  0  0
 12 24  1  0  0  0  0
 12 25  1  0  0  0  0
 13 26  1  0  0  0  0
 13 27  1  0  0  0  0
 13 28  1  0  0  0  0
 14 29  1  0  0  0  0
 14 30  1  0  0  0  0
 14 31  1  0  0  0  0
 15 32  1  0  0  0  0
 15 33  1  0  0  0  0
 15 34  1  0  0  0  0
 16 35  1  0  0  0  0
 16 36  1  0  0  0  0
 16 37  1  0  0  0  0
 17 38  1  0  0  0  0
 17 39  1  0  0  0  0
 17 40  1  0  0  0  0
M  END
> <PUBCHEM_COMPOUND_CID>
528372
> <PUBCHEM_COMPOUND_CANONICALIZED>
1
> <PUBCHEM_CACTVS_COMPLEXITY>
329
> <PUBCHEM_CACTVS_HBOND_ACCEPTOR>
4
> <PUBCHEM_CACTVS_HBOND_DONOR>
0
> <PUBCHEM_CACTVS_ROTATABLE_BOND>
5
> <PUBCHEM_CACTVS_SUBSKEYS>
AAADceByMAwAAAAAAAAAAAAAAAAAAQAAAAAAAAAAAAAAAAAAAAAAHhAAAEAACCjBgARCCAIAAAEoAACwDAAAAAAAAAAAAAGwAAACABIAgAAAAAAEAAAAAACoJAAAAAAAAAAAAAAAAAAAAAAAAAAAAAAAAA==
> <PUBCHEM_IUPAC_OPENEYE_NAME>
trimethylsilyl 5-trimethylsilyloxy-3,4-dihydro-2H-pyrrole-2-carboxylate
> <PUBCHEM_IUPAC_CAS_NAME>
5-trimethylsilyloxy-3,4-dihydro-2H-pyrrole-2-carboxylic acid trimethylsilyl ester
> <PUBCHEM_IUPAC_NAME_MARKUP>
trimethylsilyl 5-trimethylsilyloxy-3,4-dihydro-2<I>H</I>-pyrrole-2-carboxylate
> <PUBCHEM_IUPAC_NAME>
trimethylsilyl 5-trimethylsilyloxy-3,4-dihydro-2H-pyrrole-2-carboxylate
> <PUBCHEM_IUPAC_SYSTEMATIC_NAME>
trimethylsilyl 5-trimethylsilyloxy-3,4-dihydro-2H-pyrrole-2-carboxylate
> <PUBCHEM_IUPAC_TRADITIONAL_NAME>
5-trimethylsilyloxy-1-pyrroline-2-carboxylic acid trimethylsilyl ester
> <PUBCHEM_IUPAC_INCHI>
InChI=1S/C11H23NO3Si2/c1-16(2,3)14-10-8-7-9(12-10)11(13)15-17(4,5)6/h9H,7-8H2,1-6H3
> <PUBCHEM_IUPAC_INCHIKEY>
RGRQCHDQMZLOLU-UHFFFAOYSA-N
> <PUBCHEM_EXACT_MASS>
273.12164666
> <PUBCHEM_MOLECULAR_FORMULA>
C11H23NO3Si2
> <PUBCHEM_MOLECULAR_WEIGHT>
273.48
> <PUBCHEM_OPENEYE_CAN_SMILES>
C[Si](C)(C)OC1=NC(CC1)C(=O)O[Si](C)(C)C
> <PUBCHEM_OPENEYE_ISO_SMILES>
C[Si](C)(C)OC1=NC(CC1)C(=O)O[Si](C)(C)C
> <PUBCHEM_CACTVS_TPSA>
47.9
> <PUBCHEM_MONOISOTOPIC_WEIGHT>
273.12164666
> <PUBCHEM_TOTAL_CHARGE>
0
> <PUBCHEM_HEAVY_ATOM_COUNT>
17
> <PUBCHEM_ATOM_DEF_STEREO_COUNT>
0
> <PUBCHEM_ATOM_UDEF_STEREO_COUNT>
1
> <PUBCHEM_BOND_DEF_STEREO_COUNT>
0
> <PUBCHEM_BOND_UDEF_STEREO_COUNT>
0
> <PUBCHEM_ISOTOPIC_ATOM_COUNT>
0
> <PUBCHEM_COMPONENT_COUNT>
1
> <PUBCHEM_CACTVS_TAUTO_COUNT>
-1
> <PUBCHEM_COORDINATE_TYPE>
1
5
255
> <PUBCHEM_BONDANNOTATIONS>
7  11  3
$$$$
