528425
  -OEChem-10302200292D
 68 70  0     1  0  0  0  0  0999 V2000
    8.9981    1.5476    0.0000 Si  0  0  0  0  0  0  0  0  0  0  0  0
    4.6574    2.0922    0.0000 Si  0  0  0  0  0  0  0  0  0  0  0  0
    2.8680   -0.9799    0.0000 Si  0  0  0  0  0  0  0  0  0  0  0  0
    8.9981    0.5476    0.0000 O   0  0  0  0  0  0  0  0  0  0  0  0
    7.2660   -1.4524    0.0000 O   0  0  0  0  0  0  0  0  0  0  0  0
    5.5176    1.5822    0.0000 O   0  0  0  0  0  0  0  0  0  0  0  0
    3.7359   -1.4765    0.0000 O   0  0  0  0  0  0  0  0  0  0  0  0
    7.2660    1.5476    0.0000 O   0  0  0  0  0  0  0  0  0  0  0  0
    8.1320    0.0476    0.0000 C   0  0  3  0  0  0  0  0  0  0  0  0
    8.1320   -0.9524    0.0000 C   0  0  3  0  0  0  0  0  0  0  0  0
    7.2660    0.5476    0.0000 C   0  0  0  0  0  0  0  0  0  0  0  0
    6.4000    0.0476    0.0000 C   0  0  0  0  0  0  0  0  0  0  0  0
    6.4000   -0.9524    0.0000 C   0  0  0  0  0  0  0  0  0  0  0  0
    8.9981   -1.4524    0.0000 C   0  0  0  0  0  0  0  0  0  0  0  0
    5.5060    0.5823    0.0000 C   0  0  0  0  0  0  0  0  0  0  0  0
    5.5060   -1.4870    0.0000 C   0  0  0  0  0  0  0  0  0  0  0  0
    8.9981    2.5476    0.0000 C   0  0  0  0  0  0  0  0  0  0  0  0
    9.9981    1.5476    0.0000 C   0  0  0  0  0  0  0  0  0  0  0  0
    7.9981    1.5476    0.0000 C   0  0  0  0  0  0  0  0  0  0  0  0
    4.6000   -0.9732    0.0000 C   0  0  0  0  0  0  0  0  0  0  0  0
    4.6000    0.0684    0.0000 C   0  0  0  0  0  0  0  0  0  0  0  0
    9.8641   -0.9524    0.0000 C   0  0  0  0  0  0  0  0  0  0  0  0
    8.9981   -2.4524    0.0000 C   0  0  0  0  0  0  0  0  0  0  0  0
    3.7972    2.6022    0.0000 C   0  0  0  0  0  0  0  0  0  0  0  0
    5.1674    2.9524    0.0000 C   0  0  0  0  0  0  0  0  0  0  0  0
    4.1474    1.2320    0.0000 C   0  0  0  0  0  0  0  0  0  0  0  0
    2.0000   -0.4832    0.0000 C   0  0  0  0  0  0  0  0  0  0  0  0
    2.3713   -1.8478    0.0000 C   0  0  0  0  0  0  0  0  0  0  0  0
    3.3646   -0.1119    0.0000 C   0  0  0  0  0  0  0  0  0  0  0  0
   10.7301   -1.4524    0.0000 C   0  0  0  0  0  0  0  0  0  0  0  0
    9.8641   -2.9524    0.0000 C   0  0  0  0  0  0  0  0  0  0  0  0
   10.7301   -2.4524    0.0000 C   0  0  0  0  0  0  0  0  0  0  0  0
    8.6690   -0.2624    0.0000 H   0  0  0  0  0  0  0  0  0  0  0  0
    8.1320   -1.5724    0.0000 H   0  0  0  0  0  0  0  0  0  0  0  0
    5.5132   -2.1070    0.0000 H   0  0  0  0  0  0  0  0  0  0  0  0
    9.6181    2.5476    0.0000 H   0  0  0  0  0  0  0  0  0  0  0  0
    8.9981    3.1676    0.0000 H   0  0  0  0  0  0  0  0  0  0  0  0
    8.3781    2.5476    0.0000 H   0  0  0  0  0  0  0  0  0  0  0  0
    9.9981    0.9276    0.0000 H   0  0  0  0  0  0  0  0  0  0  0  0
   10.6181    1.5476    0.0000 H   0  0  0  0  0  0  0  0  0  0  0  0
    9.9981    2.1676    0.0000 H   0  0  0  0  0  0  0  0  0  0  0  0
    7.9981    2.1676    0.0000 H   0  0  0  0  0  0  0  0  0  0  0  0
    7.3781    1.5476    0.0000 H   0  0  0  0  0  0  0  0  0  0  0  0
    7.9981    0.9276    0.0000 H   0  0  0  0  0  0  0  0  0  0  0  0
    4.0642    0.3805    0.0000 H   0  0  0  0  0  0  0  0  0  0  0  0
    9.8641   -0.3324    0.0000 H   0  0  0  0  0  0  0  0  0  0  0  0
    8.4611   -2.7624    0.0000 H   0  0  0  0  0  0  0  0  0  0  0  0
    4.1134    3.1355    0.0000 H   0  0  0  0  0  0  0  0  0  0  0  0
    3.2639    2.9184    0.0000 H   0  0  0  0  0  0  0  0  0  0  0  0
    3.4810    2.0689    0.0000 H   0  0  0  0  0  0  0  0  0  0  0  0
    5.7007    2.6362    0.0000 H   0  0  0  0  0  0  0  0  0  0  0  0
    5.4836    3.4857    0.0000 H   0  0  0  0  0  0  0  0  0  0  0  0
    4.6341    3.2686    0.0000 H   0  0  0  0  0  0  0  0  0  0  0  0
    3.6141    1.5482    0.0000 H   0  0  0  0  0  0  0  0  0  0  0  0
    3.8313    0.6987    0.0000 H   0  0  0  0  0  0  0  0  0  0  0  0
    4.6808    0.9158    0.0000 H   0  0  0  0  0  0  0  0  0  0  0  0
    2.3079    0.0549    0.0000 H   0  0  0  0  0  0  0  0  0  0  0  0
    1.4619   -0.1753    0.0000 H   0  0  0  0  0  0  0  0  0  0  0  0
    1.6921   -1.0213    0.0000 H   0  0  0  0  0  0  0  0  0  0  0  0
    1.8332   -1.5399    0.0000 H   0  0  0  0  0  0  0  0  0  0  0  0
    2.0634   -2.3859    0.0000 H   0  0  0  0  0  0  0  0  0  0  0  0
    2.9094   -2.1558    0.0000 H   0  0  0  0  0  0  0  0  0  0  0  0
    3.9027   -0.4199    0.0000 H   0  0  0  0  0  0  0  0  0  0  0  0
    3.6725    0.4262    0.0000 H   0  0  0  0  0  0  0  0  0  0  0  0
    2.8265    0.1960    0.0000 H   0  0  0  0  0  0  0  0  0  0  0  0
   11.2671   -1.1424    0.0000 H   0  0  0  0  0  0  0  0  0  0  0  0
    9.8641   -3.5724    0.0000 H   0  0  0  0  0  0  0  0  0  0  0  0
   11.2671   -2.7624    0.0000 H   0  0  0  0  0  0  0  0  0  0  0  0
  1  4  1  0  0  0  0
  1 17  1  0  0  0  0
  1 18  1  0  0  0  0
  1 19  1  0  0  0  0
  2  6  1  0  0  0  0
  2 24  1  0  0  0  0
  2 25  1  0  0  0  0
  2 26  1  0  0  0  0
  3  7  1  0  0  0  0
  3 27  1  0  0  0  0
  3 28  1  0  0  0  0
  3 29  1  0  0  0  0
  4  9  1  0  0  0  0
  5 10  1  0  0  0  0
  5 13  1  0  0  0  0
  6 15  1  0  0  0  0
  7 20  1  0  0  0  0
  8 11  2  0  0  0  0
  9 10  1  0  0  0  0
  9 11  1  0  0  0  0
  9 33  1  0  0  0  0
 10 14  1  0  0  0  0
 10 34  1  0  0  0  0
 11 12  1  0  0  0  0
 12 13  2  0  0  0  0
 12 15  1  0  0  0  0
 13 16  1  0  0  0  0
 14 22  2  0  0  0  0
 14 23  1  0  0  0  0
 15 21  2  0  0  0  0
 16 20  2  0  0  0  0
 16 35  1  0  0  0  0
 17 36  1  0  0  0  0
 17 37  1  0  0  0  0
 17 38  1  0  0  0  0
 18 39  1  0  0  0  0
 18 40  1  0  0  0  0
 18 41  1  0  0  0  0
 19 42  1  0  0  0  0
 19 43  1  0  0  0  0
 19 44  1  0  0  0  0
 20 21  1  0  0  0  0
 21 45  1  0  0  0  0
 22 30  1  0  0  0  0
 22 46  1  0  0  0  0
 23 31  2  0  0  0  0
 23 47  1  0  0  0  0
 24 48  1  0  0  0  0
 24 49  1  0  0  0  0
 24 50  1  0  0  0  0
 25 51  1  0  0  0  0
 25 52  1  0  0  0  0
 25 53  1  0  0  0  0
 26 54  1  0  0  0  0
 26 55  1  0  0  0  0
 26 56  1  0  0  0  0
 27 57  1  0  0  0  0
 27 58  1  0  0  0  0
 27 59  1  0  0  0  0
 28 60  1  0  0  0  0
 28 61  1  0  0  0  0
 28 62  1  0  0  0  0
 29 63  1  0  0  0  0
 29 64  1  0  0  0  0
 29 65  1  0  0  0  0
 30 32  2  0  0  0  0
 30 66  1  0  0  0  0
 31 32  1  0  0  0  0
 31 67  1  0  0  0  0
 32 68  1  0  0  0  0
M  END
> <PUBCHEM_COMPOUND_CID>
528425
> <PUBCHEM_COMPOUND_CANONICALIZED>
1
> <PUBCHEM_CACTVS_COMPLEXITY>
646
> <PUBCHEM_CACTVS_HBOND_ACCEPTOR>
5
> <PUBCHEM_CACTVS_HBOND_DONOR>
0
> <PUBCHEM_CACTVS_ROTATABLE_BOND>
7
> <PUBCHEM_CACTVS_SUBSKEYS>
AAADcfB4OAwAAAAAAAAAAAAAAAAAAAAAAAA0YIAAAAAAAACRQAAAGhAAAEAADBSgmAJyBoAABAGIAqBSAAICCAAkIAAIiAFGCMgNJzaENRqCOWCl4BUKqQfI7OzOIAAACAAIAABAAAAQABAAAAAAAAAAAA==
> <PUBCHEM_IUPAC_OPENEYE_NAME>
2-phenyl-3,5,7-tris(trimethylsilyloxy)chroman-4-one
> <PUBCHEM_IUPAC_CAS_NAME>
2-phenyl-3,5,7-tris(trimethylsilyloxy)-3,4-dihydro-2H-1-benzopyran-4-one
> <PUBCHEM_IUPAC_NAME_MARKUP>
2-phenyl-3,5,7-tris(trimethylsilyloxy)-2,3-dihydrochromen-4-one
> <PUBCHEM_IUPAC_NAME>
2-phenyl-3,5,7-tris(trimethylsilyloxy)-2,3-dihydrochromen-4-one
> <PUBCHEM_IUPAC_SYSTEMATIC_NAME>
2-phenyl-3,5,7-tris(trimethylsilyloxy)-2,3-dihydrochromen-4-one
> <PUBCHEM_IUPAC_TRADITIONAL_NAME>
2-phenyl-3,5,7-tris(trimethylsilyloxy)chroman-4-one
> <PUBCHEM_IUPAC_INCHI>
InChI=1S/C24H36O5Si3/c1-30(2,3)27-18-15-19-21(20(16-18)28-31(4,5)6)22(25)24(29-32(7,8)9)23(26-19)17-13-11-10-12-14-17/h10-16,23-24H,1-9H3
> <PUBCHEM_IUPAC_INCHIKEY>
AONLCEUOCFEYLB-UHFFFAOYSA-N
> <PUBCHEM_EXACT_MASS>
488.18705385
> <PUBCHEM_MOLECULAR_FORMULA>
C24H36O5Si3
> <PUBCHEM_MOLECULAR_WEIGHT>
488.8
> <PUBCHEM_OPENEYE_CAN_SMILES>
C[Si](C)(C)OC1C(OC2=C(C1=O)C(=CC(=C2)O[Si](C)(C)C)O[Si](C)(C)C)C3=CC=CC=C3
> <PUBCHEM_OPENEYE_ISO_SMILES>
C[Si](C)(C)OC1C(OC2=C(C1=O)C(=CC(=C2)O[Si](C)(C)C)O[Si](C)(C)C)C3=CC=CC=C3
> <PUBCHEM_CACTVS_TPSA>
54
> <PUBCHEM_MONOISOTOPIC_WEIGHT>
488.18705385
> <PUBCHEM_TOTAL_CHARGE>
0
> <PUBCHEM_HEAVY_ATOM_COUNT>
32
> <PUBCHEM_ATOM_DEF_STEREO_COUNT>
0
> <PUBCHEM_ATOM_UDEF_STEREO_COUNT>
2
> <PUBCHEM_BOND_DEF_STEREO_COUNT>
0
> <PUBCHEM_BOND_UDEF_STEREO_COUNT>
0
> <PUBCHEM_ISOTOPIC_ATOM_COUNT>
0
> <PUBCHEM_COMPONENT_COUNT>
1
> <PUBCHEM_CACTVS_TAUTO_COUNT>
-1
> <PUBCHEM_COORDINATE_TYPE>
1
5
255
> <PUBCHEM_BONDANNOTATIONS>
10  14  3
12  13  8
12  15  8
13  16  8
14  22  8
14  23  8
15  21  8
16  20  8
20  21  8
22  30  8
23  31  8
30  32  8
31  32  8
9  4  3
$$$$
