528437
  -OEChem-10302200292D
 36 35  0     1  0  0  0  0  0999 V2000
    4.5981    0.5000    0.0000 C   0  0  3  0  0  0  0  0  0  0  0  0
    5.4641    1.0000    0.0000 C   0  0  0  0  0  0  0  0  0  0  0  0
    6.3301    0.5000    0.0000 C   0  0  0  0  0  0  0  0  0  0  0  0
    4.5981   -0.5000    0.0000 C   0  0  0  0  0  0  0  0  0  0  0  0
    7.1962    1.0000    0.0000 C   0  0  0  0  0  0  0  0  0  0  0  0
    3.7320    1.0000    0.0000 C   0  0  0  0  0  0  0  0  0  0  0  0
    8.0622    0.5000    0.0000 C   0  0  0  0  0  0  0  0  0  0  0  0
    3.7320   -1.0000    0.0000 C   0  0  0  0  0  0  0  0  0  0  0  0
    8.9282    1.0000    0.0000 C   0  0  0  0  0  0  0  0  0  0  0  0
    2.8660    0.5000    0.0000 C   0  0  0  0  0  0  0  0  0  0  0  0
    9.7942    0.5000    0.0000 C   0  0  0  0  0  0  0  0  0  0  0  0
    2.0000    1.0000    0.0000 C   0  0  0  0  0  0  0  0  0  0  0  0
    4.5981    1.1200    0.0000 H   0  0  0  0  0  0  0  0  0  0  0  0
    5.8626    1.4750    0.0000 H   0  0  0  0  0  0  0  0  0  0  0  0
    5.0656    1.4750    0.0000 H   0  0  0  0  0  0  0  0  0  0  0  0
    5.9316    0.0251    0.0000 H   0  0  0  0  0  0  0  0  0  0  0  0
    6.7287    0.0251    0.0000 H   0  0  0  0  0  0  0  0  0  0  0  0
    4.8101   -1.0826    0.0000 H   0  0  0  0  0  0  0  0  0  0  0  0
    5.2087   -0.3923    0.0000 H   0  0  0  0  0  0  0  0  0  0  0  0
    7.5947    1.4750    0.0000 H   0  0  0  0  0  0  0  0  0  0  0  0
    6.7976    1.4750    0.0000 H   0  0  0  0  0  0  0  0  0  0  0  0
    4.1306    1.4750    0.0000 H   0  0  0  0  0  0  0  0  0  0  0  0
    3.3335    1.4750    0.0000 H   0  0  0  0  0  0  0  0  0  0  0  0
    7.6636    0.0251    0.0000 H   0  0  0  0  0  0  0  0  0  0  0  0
    8.4607    0.0251    0.0000 H   0  0  0  0  0  0  0  0  0  0  0  0
    3.4220   -0.4631    0.0000 H   0  0  0  0  0  0  0  0  0  0  0  0
    3.1951   -1.3100    0.0000 H   0  0  0  0  0  0  0  0  0  0  0  0
    4.0420   -1.5369    0.0000 H   0  0  0  0  0  0  0  0  0  0  0  0
    9.3267    1.4750    0.0000 H   0  0  0  0  0  0  0  0  0  0  0  0
    8.5297    1.4750    0.0000 H   0  0  0  0  0  0  0  0  0  0  0  0
    2.8660   -0.1200    0.0000 H   0  0  0  0  0  0  0  0  0  0  0  0
    9.4842   -0.0369    0.0000 H   0  0  0  0  0  0  0  0  0  0  0  0
   10.3312    0.1900    0.0000 H   0  0  0  0  0  0  0  0  0  0  0  0
   10.1042    1.0369    0.0000 H   0  0  0  0  0  0  0  0  0  0  0  0
    2.0000    1.6200    0.0000 H   0  0  0  0  0  0  0  0  0  0  0  0
    1.4631    0.6900    0.0000 H   0  0  0  0  0  0  0  0  0  0  0  0
  1  2  1  0  0  0  0
  1  4  1  0  0  0  0
  1  6  1  0  0  0  0
  1 13  1  0  0  0  0
  2  3  1  0  0  0  0
  2 14  1  0  0  0  0
  2 15  1  0  0  0  0
  3  5  1  0  0  0  0
  3 16  1  0  0  0  0
  3 17  1  0  0  0  0
  4  8  1  0  0  0  0
  4 18  1  0  0  0  0
  4 19  1  0  0  0  0
  5  7  1  0  0  0  0
  5 20  1  0  0  0  0
  5 21  1  0  0  0  0
  6 10  1  0  0  0  0
  6 22  1  0  0  0  0
  6 23  1  0  0  0  0
  7  9  1  0  0  0  0
  7 24  1  0  0  0  0
  7 25  1  0  0  0  0
  8 26  1  0  0  0  0
  8 27  1  0  0  0  0
  8 28  1  0  0  0  0
  9 11  1  0  0  0  0
  9 29  1  0  0  0  0
  9 30  1  0  0  0  0
 10 12  2  0  0  0  0
 10 31  1  0  0  0  0
 11 32  1  0  0  0  0
 11 33  1  0  0  0  0
 11 34  1  0  0  0  0
 12 35  1  0  0  0  0
 12 36  1  0  0  0  0
M  END
> <PUBCHEM_COMPOUND_CID>
528437
> <PUBCHEM_COMPOUND_CANONICALIZED>
1
> <PUBCHEM_CACTVS_COMPLEXITY>
94.2
> <PUBCHEM_CACTVS_HBOND_ACCEPTOR>
0
> <PUBCHEM_CACTVS_HBOND_DONOR>
0
> <PUBCHEM_CACTVS_ROTATABLE_BOND>
8
> <PUBCHEM_CACTVS_SUBSKEYS>
AAADceBwAAAAAAAAAAAAAAAAAAAAAAAAAAAAAAAAAAAAAAAAAAAAGAAAAAAADQCAAAACAAAAAACAACBCAAAAAAAgAAAIAAAAAAgAAAIAAQAAAAAAgAAAAAEAgMAOAAAAAAAAAAAAAAAAAAAAAAAAAAAAAA==
> <PUBCHEM_IUPAC_OPENEYE_NAME>
4-ethyldec-1-ene
> <PUBCHEM_IUPAC_CAS_NAME>
4-ethyl-1-decene
> <PUBCHEM_IUPAC_NAME_MARKUP>
4-ethyldec-1-ene
> <PUBCHEM_IUPAC_NAME>
4-ethyldec-1-ene
> <PUBCHEM_IUPAC_SYSTEMATIC_NAME>
4-ethyldec-1-ene
> <PUBCHEM_IUPAC_TRADITIONAL_NAME>
4-ethyldec-1-ene
> <PUBCHEM_IUPAC_INCHI>
InChI=1S/C12H24/c1-4-7-8-9-11-12(6-3)10-5-2/h5,12H,2,4,6-11H2,1,3H3
> <PUBCHEM_IUPAC_INCHIKEY>
YRVRPNGIWJYHPQ-UHFFFAOYSA-N
> <PUBCHEM_XLOGP3_AA>
5.9
> <PUBCHEM_EXACT_MASS>
168.187800766
> <PUBCHEM_MOLECULAR_FORMULA>
C12H24
> <PUBCHEM_MOLECULAR_WEIGHT>
168.32
> <PUBCHEM_OPENEYE_CAN_SMILES>
CCCCCCC(CC)CC=C
> <PUBCHEM_OPENEYE_ISO_SMILES>
CCCCCCC(CC)CC=C
> <PUBCHEM_CACTVS_TPSA>
0
> <PUBCHEM_MONOISOTOPIC_WEIGHT>
168.187800766
> <PUBCHEM_TOTAL_CHARGE>
0
> <PUBCHEM_HEAVY_ATOM_COUNT>
12
> <PUBCHEM_ATOM_DEF_STEREO_COUNT>
0
> <PUBCHEM_ATOM_UDEF_STEREO_COUNT>
1
> <PUBCHEM_BOND_DEF_STEREO_COUNT>
0
> <PUBCHEM_BOND_UDEF_STEREO_COUNT>
0
> <PUBCHEM_ISOTOPIC_ATOM_COUNT>
0
> <PUBCHEM_COMPONENT_COUNT>
1
> <PUBCHEM_CACTVS_TAUTO_COUNT>
-1
> <PUBCHEM_COORDINATE_TYPE>
1
5
255
> <PUBCHEM_BONDANNOTATIONS>
1  4  3
$$$$
