528444
  -OEChem-10302200292D
 42 41  0     1  0  0  0  0  0999 V2000
    4.5981    0.5000    0.0000 C   0  0  3  0  0  0  0  0  0  0  0  0
    5.4641    1.0000    0.0000 C   0  0  0  0  0  0  0  0  0  0  0  0
    6.3301    0.5000    0.0000 C   0  0  0  0  0  0  0  0  0  0  0  0
    7.1962    1.0000    0.0000 C   0  0  0  0  0  0  0  0  0  0  0  0
    8.0622    0.5000    0.0000 C   0  0  0  0  0  0  0  0  0  0  0  0
    4.5981   -0.5000    0.0000 C   0  0  0  0  0  0  0  0  0  0  0  0
    3.7320    1.0000    0.0000 C   0  0  0  0  0  0  0  0  0  0  0  0
    8.9282    1.0000    0.0000 C   0  0  0  0  0  0  0  0  0  0  0  0
    9.7942    0.5000    0.0000 C   0  0  0  0  0  0  0  0  0  0  0  0
    3.7320   -1.0000    0.0000 C   0  0  0  0  0  0  0  0  0  0  0  0
   10.6603    1.0000    0.0000 C   0  0  0  0  0  0  0  0  0  0  0  0
    2.8660    0.5000    0.0000 C   0  0  0  0  0  0  0  0  0  0  0  0
   11.5263    0.5000    0.0000 C   0  0  0  0  0  0  0  0  0  0  0  0
    2.0000    1.0000    0.0000 C   0  0  0  0  0  0  0  0  0  0  0  0
    4.5981    1.1200    0.0000 H   0  0  0  0  0  0  0  0  0  0  0  0
    5.8626    1.4750    0.0000 H   0  0  0  0  0  0  0  0  0  0  0  0
    5.0656    1.4750    0.0000 H   0  0  0  0  0  0  0  0  0  0  0  0
    5.9316    0.0251    0.0000 H   0  0  0  0  0  0  0  0  0  0  0  0
    6.7287    0.0251    0.0000 H   0  0  0  0  0  0  0  0  0  0  0  0
    7.5947    1.4750    0.0000 H   0  0  0  0  0  0  0  0  0  0  0  0
    6.7976    1.4750    0.0000 H   0  0  0  0  0  0  0  0  0  0  0  0
    7.6636    0.0251    0.0000 H   0  0  0  0  0  0  0  0  0  0  0  0
    8.4607    0.0251    0.0000 H   0  0  0  0  0  0  0  0  0  0  0  0
    4.8101   -1.0826    0.0000 H   0  0  0  0  0  0  0  0  0  0  0  0
    5.2087   -0.3923    0.0000 H   0  0  0  0  0  0  0  0  0  0  0  0
    4.1306    1.4750    0.0000 H   0  0  0  0  0  0  0  0  0  0  0  0
    3.3335    1.4750    0.0000 H   0  0  0  0  0  0  0  0  0  0  0  0
    9.3267    1.4750    0.0000 H   0  0  0  0  0  0  0  0  0  0  0  0
    8.5297    1.4750    0.0000 H   0  0  0  0  0  0  0  0  0  0  0  0
    9.3957    0.0251    0.0000 H   0  0  0  0  0  0  0  0  0  0  0  0
   10.1928    0.0251    0.0000 H   0  0  0  0  0  0  0  0  0  0  0  0
    3.4220   -0.4631    0.0000 H   0  0  0  0  0  0  0  0  0  0  0  0
    3.1951   -1.3100    0.0000 H   0  0  0  0  0  0  0  0  0  0  0  0
    4.0420   -1.5369    0.0000 H   0  0  0  0  0  0  0  0  0  0  0  0
   11.0588    1.4750    0.0000 H   0  0  0  0  0  0  0  0  0  0  0  0
   10.2617    1.4750    0.0000 H   0  0  0  0  0  0  0  0  0  0  0  0
    2.8660   -0.1200    0.0000 H   0  0  0  0  0  0  0  0  0  0  0  0
   11.2163   -0.0369    0.0000 H   0  0  0  0  0  0  0  0  0  0  0  0
   12.0632    0.1900    0.0000 H   0  0  0  0  0  0  0  0  0  0  0  0
   11.8363    1.0369    0.0000 H   0  0  0  0  0  0  0  0  0  0  0  0
    2.0000    1.6200    0.0000 H   0  0  0  0  0  0  0  0  0  0  0  0
    1.4631    0.6900    0.0000 H   0  0  0  0  0  0  0  0  0  0  0  0
  1  2  1  0  0  0  0
  1  6  1  0  0  0  0
  1  7  1  0  0  0  0
  1 15  1  0  0  0  0
  2  3  1  0  0  0  0
  2 16  1  0  0  0  0
  2 17  1  0  0  0  0
  3  4  1  0  0  0  0
  3 18  1  0  0  0  0
  3 19  1  0  0  0  0
  4  5  1  0  0  0  0
  4 20  1  0  0  0  0
  4 21  1  0  0  0  0
  5  8  1  0  0  0  0
  5 22  1  0  0  0  0
  5 23  1  0  0  0  0
  6 10  1  0  0  0  0
  6 24  1  0  0  0  0
  6 25  1  0  0  0  0
  7 12  1  0  0  0  0
  7 26  1  0  0  0  0
  7 27  1  0  0  0  0
  8  9  1  0  0  0  0
  8 28  1  0  0  0  0
  8 29  1  0  0  0  0
  9 11  1  0  0  0  0
  9 30  1  0  0  0  0
  9 31  1  0  0  0  0
 10 32  1  0  0  0  0
 10 33  1  0  0  0  0
 10 34  1  0  0  0  0
 11 13  1  0  0  0  0
 11 35  1  0  0  0  0
 11 36  1  0  0  0  0
 12 14  2  0  0  0  0
 12 37  1  0  0  0  0
 13 38  1  0  0  0  0
 13 39  1  0  0  0  0
 13 40  1  0  0  0  0
 14 41  1  0  0  0  0
 14 42  1  0  0  0  0
M  END
> <PUBCHEM_COMPOUND_CID>
528444
> <PUBCHEM_COMPOUND_CANONICALIZED>
1
> <PUBCHEM_CACTVS_COMPLEXITY>
115
> <PUBCHEM_CACTVS_HBOND_ACCEPTOR>
0
> <PUBCHEM_CACTVS_HBOND_DONOR>
0
> <PUBCHEM_CACTVS_ROTATABLE_BOND>
10
> <PUBCHEM_CACTVS_SUBSKEYS>
AAADceBwAAAAAAAAAAAAAAAAAAAAAAAAAAAAAAAAAAAAAAAAAAAAGAAAAAAADQCAAAACAAAAAACAACBCAAAAAAAgAAAIAAAAAAgAAAIAAQAAAAAAgAAAAAEAgMAOAAAAAAAAAAAAAAAAAAAAAAAAAAAAAA==
> <PUBCHEM_IUPAC_OPENEYE_NAME>
4-ethyldodec-1-ene
> <PUBCHEM_IUPAC_CAS_NAME>
4-ethyl-1-dodecene
> <PUBCHEM_IUPAC_NAME_MARKUP>
4-ethyldodec-1-ene
> <PUBCHEM_IUPAC_NAME>
4-ethyldodec-1-ene
> <PUBCHEM_IUPAC_SYSTEMATIC_NAME>
4-ethyldodec-1-ene
> <PUBCHEM_IUPAC_TRADITIONAL_NAME>
4-ethyldodec-1-ene
> <PUBCHEM_IUPAC_INCHI>
InChI=1S/C14H28/c1-4-7-8-9-10-11-13-14(6-3)12-5-2/h5,14H,2,4,6-13H2,1,3H3
> <PUBCHEM_IUPAC_INCHIKEY>
QLQXRNOFPBTBOL-UHFFFAOYSA-N
> <PUBCHEM_XLOGP3_AA>
7
> <PUBCHEM_EXACT_MASS>
196.219100893
> <PUBCHEM_MOLECULAR_FORMULA>
C14H28
> <PUBCHEM_MOLECULAR_WEIGHT>
196.37
> <PUBCHEM_OPENEYE_CAN_SMILES>
CCCCCCCCC(CC)CC=C
> <PUBCHEM_OPENEYE_ISO_SMILES>
CCCCCCCCC(CC)CC=C
> <PUBCHEM_CACTVS_TPSA>
0
> <PUBCHEM_MONOISOTOPIC_WEIGHT>
196.219100893
> <PUBCHEM_TOTAL_CHARGE>
0
> <PUBCHEM_HEAVY_ATOM_COUNT>
14
> <PUBCHEM_ATOM_DEF_STEREO_COUNT>
0
> <PUBCHEM_ATOM_UDEF_STEREO_COUNT>
1
> <PUBCHEM_BOND_DEF_STEREO_COUNT>
0
> <PUBCHEM_BOND_UDEF_STEREO_COUNT>
0
> <PUBCHEM_ISOTOPIC_ATOM_COUNT>
0
> <PUBCHEM_COMPONENT_COUNT>
1
> <PUBCHEM_CACTVS_TAUTO_COUNT>
-1
> <PUBCHEM_COORDINATE_TYPE>
1
5
255
> <PUBCHEM_BONDANNOTATIONS>
1  6  3
$$$$
