528427
  -OEChem-10302200292D
 59 61  0     1  0  0  0  0  0999 V2000
    4.5981    2.0841    0.0000 Si  0  0  0  0  0  0  0  0  0  0  0  0
    2.8660   -0.9159    0.0000 Si  0  0  0  0  0  0  0  0  0  0  0  0
    7.2241   -1.4506    0.0000 O   0  0  0  0  0  0  0  0  0  0  0  0
    5.4641    1.5841    0.0000 O   0  0  0  0  0  0  0  0  0  0  0  0
    3.7320   -1.4159    0.0000 O   0  0  0  0  0  0  0  0  0  0  0  0
    7.2125    1.6187    0.0000 O   0  0  0  0  0  0  0  0  0  0  0  0
   11.5865   -2.9501    0.0000 O   0  0  0  0  0  0  0  0  0  0  0  0
    8.1301   -0.9368    0.0000 C   0  0  3  0  0  0  0  0  0  0  0  0
    8.1301    0.1049    0.0000 C   0  0  0  0  0  0  0  0  0  0  0  0
    6.3301    0.0841    0.0000 C   0  0  0  0  0  0  0  0  0  0  0  0
    6.3301   -0.9159    0.0000 C   0  0  0  0  0  0  0  0  0  0  0  0
    5.4641    0.5841    0.0000 C   0  0  0  0  0  0  0  0  0  0  0  0
    7.2241    0.6187    0.0000 C   0  0  0  0  0  0  0  0  0  0  0  0
    8.9942   -1.4401    0.0000 C   0  0  0  0  0  0  0  0  0  0  0  0
    4.5981   -0.9159    0.0000 C   0  0  0  0  0  0  0  0  0  0  0  0
    5.4641   -1.4159    0.0000 C   0  0  0  0  0  0  0  0  0  0  0  0
    4.5981    0.0841    0.0000 C   0  0  0  0  0  0  0  0  0  0  0  0
    3.7320    2.5841    0.0000 C   0  0  0  0  0  0  0  0  0  0  0  0
    5.0981    2.9501    0.0000 C   0  0  0  0  0  0  0  0  0  0  0  0
    4.0981    1.2180    0.0000 C   0  0  0  0  0  0  0  0  0  0  0  0
    2.0000   -0.4159    0.0000 C   0  0  0  0  0  0  0  0  0  0  0  0
    2.3660   -1.7820    0.0000 C   0  0  0  0  0  0  0  0  0  0  0  0
    3.3660   -0.0499    0.0000 C   0  0  0  0  0  0  0  0  0  0  0  0
    8.9904   -2.4401    0.0000 C   0  0  0  0  0  0  0  0  0  0  0  0
    9.8622   -0.9434    0.0000 C   0  0  0  0  0  0  0  0  0  0  0  0
    9.8545   -2.9434    0.0000 C   0  0  0  0  0  0  0  0  0  0  0  0
   10.7263   -1.4468    0.0000 C   0  0  0  0  0  0  0  0  0  0  0  0
   10.7224   -2.4468    0.0000 C   0  0  0  0  0  0  0  0  0  0  0  0
   12.4544   -2.4534    0.0000 C   0  0  0  0  0  0  0  0  0  0  0  0
    8.6677   -0.6278    0.0000 H   0  0  0  0  0  0  0  0  0  0  0  0
    8.7410   -0.0012    0.0000 H   0  0  0  0  0  0  0  0  0  0  0  0
    8.3392    0.6886    0.0000 H   0  0  0  0  0  0  0  0  0  0  0  0
    5.4641   -2.0359    0.0000 H   0  0  0  0  0  0  0  0  0  0  0  0
    4.0611    0.3941    0.0000 H   0  0  0  0  0  0  0  0  0  0  0  0
    4.0420    3.1210    0.0000 H   0  0  0  0  0  0  0  0  0  0  0  0
    3.1951    2.8941    0.0000 H   0  0  0  0  0  0  0  0  0  0  0  0
    3.4220    2.0471    0.0000 H   0  0  0  0  0  0  0  0  0  0  0  0
    5.6350    2.6401    0.0000 H   0  0  0  0  0  0  0  0  0  0  0  0
    5.4081    3.4870    0.0000 H   0  0  0  0  0  0  0  0  0  0  0  0
    4.5611    3.2601    0.0000 H   0  0  0  0  0  0  0  0  0  0  0  0
    3.5611    1.5280    0.0000 H   0  0  0  0  0  0  0  0  0  0  0  0
    3.7881    0.6811    0.0000 H   0  0  0  0  0  0  0  0  0  0  0  0
    4.6350    0.9080    0.0000 H   0  0  0  0  0  0  0  0  0  0  0  0
    2.3100    0.1210    0.0000 H   0  0  0  0  0  0  0  0  0  0  0  0
    1.4631   -0.1059    0.0000 H   0  0  0  0  0  0  0  0  0  0  0  0
    1.6900   -0.9529    0.0000 H   0  0  0  0  0  0  0  0  0  0  0  0
    1.8291   -1.4720    0.0000 H   0  0  0  0  0  0  0  0  0  0  0  0
    2.0560   -2.3189    0.0000 H   0  0  0  0  0  0  0  0  0  0  0  0
    2.9030   -2.0920    0.0000 H   0  0  0  0  0  0  0  0  0  0  0  0
    3.9030   -0.3599    0.0000 H   0  0  0  0  0  0  0  0  0  0  0  0
    3.6760    0.4870    0.0000 H   0  0  0  0  0  0  0  0  0  0  0  0
    2.8291    0.2601    0.0000 H   0  0  0  0  0  0  0  0  0  0  0  0
    8.4522   -2.7480    0.0000 H   0  0  0  0  0  0  0  0  0  0  0  0
    9.8646   -0.3234    0.0000 H   0  0  0  0  0  0  0  0  0  0  0  0
    9.8521   -3.5634    0.0000 H   0  0  0  0  0  0  0  0  0  0  0  0
   11.2644   -1.1388    0.0000 H   0  0  0  0  0  0  0  0  0  0  0  0
   12.7624   -2.9916    0.0000 H   0  0  0  0  0  0  0  0  0  0  0  0
   12.9926   -2.1455    0.0000 H   0  0  0  0  0  0  0  0  0  0  0  0
   12.1465   -1.9153    0.0000 H   0  0  0  0  0  0  0  0  0  0  0  0
  1  4  1  0  0  0  0
  1 18  1  0  0  0  0
  1 19  1  0  0  0  0
  1 20  1  0  0  0  0
  2  5  1  0  0  0  0
  2 21  1  0  0  0  0
  2 22  1  0  0  0  0
  2 23  1  0  0  0  0
  3  8  1  0  0  0  0
  3 11  1  0  0  0  0
  4 12  1  0  0  0  0
  5 15  1  0  0  0  0
  6 13  2  0  0  0  0
  7 28  1  0  0  0  0
  7 29  1  0  0  0  0
  8  9  1  0  0  0  0
  8 14  1  0  0  0  0
  8 30  1  0  0  0  0
  9 13  1  0  0  0  0
  9 31  1  0  0  0  0
  9 32  1  0  0  0  0
 10 11  2  0  0  0  0
 10 12  1  0  0  0  0
 10 13  1  0  0  0  0
 11 16  1  0  0  0  0
 12 17  2  0  0  0  0
 14 24  2  0  0  0  0
 14 25  1  0  0  0  0
 15 16  2  0  0  0  0
 15 17  1  0  0  0  0
 16 33  1  0  0  0  0
 17 34  1  0  0  0  0
 18 35  1  0  0  0  0
 18 36  1  0  0  0  0
 18 37  1  0  0  0  0
 19 38  1  0  0  0  0
 19 39  1  0  0  0  0
 19 40  1  0  0  0  0
 20 41  1  0  0  0  0
 20 42  1  0  0  0  0
 20 43  1  0  0  0  0
 21 44  1  0  0  0  0
 21 45  1  0  0  0  0
 21 46  1  0  0  0  0
 22 47  1  0  0  0  0
 22 48  1  0  0  0  0
 22 49  1  0  0  0  0
 23 50  1  0  0  0  0
 23 51  1  0  0  0  0
 23 52  1  0  0  0  0
 24 26  1  0  0  0  0
 24 53  1  0  0  0  0
 25 27  2  0  0  0  0
 25 54  1  0  0  0  0
 26 28  2  0  0  0  0
 26 55  1  0  0  0  0
 27 28  1  0  0  0  0
 27 56  1  0  0  0  0
 29 57  1  0  0  0  0
 29 58  1  0  0  0  0
 29 59  1  0  0  0  0
M  END
> <PUBCHEM_COMPOUND_CID>
528427
> <PUBCHEM_COMPOUND_CANONICALIZED>
1
> <PUBCHEM_CACTVS_COMPLEXITY>
563
> <PUBCHEM_CACTVS_HBOND_ACCEPTOR>
5
> <PUBCHEM_CACTVS_HBOND_DONOR>
0
> <PUBCHEM_CACTVS_ROTATABLE_BOND>
6
> <PUBCHEM_CACTVS_SUBSKEYS>
AAADceB4OAwAAAAAAAAAAAAAAAAAAAAAAAA0YIAAAAAAAACRQAAAGhAAAEAADBSgmAJyBoAABAGIAqBSAAACCAAkIAAIiAEGCMgMJzaENRqCOWCl4BUIqQeI7OzOIAAACAAIAABAAAAQABAAAAAAAAAAAA==
> <PUBCHEM_IUPAC_OPENEYE_NAME>
2-(4-methoxyphenyl)-5,7-bis(trimethylsilyloxy)chroman-4-one
> <PUBCHEM_IUPAC_CAS_NAME>
2-(4-methoxyphenyl)-5,7-bis(trimethylsilyloxy)-3,4-dihydro-2H-1-benzopyran-4-one
> <PUBCHEM_IUPAC_NAME_MARKUP>
2-(4-methoxyphenyl)-5,7-bis(trimethylsilyloxy)-2,3-dihydrochromen-4-one
> <PUBCHEM_IUPAC_NAME>
2-(4-methoxyphenyl)-5,7-bis(trimethylsilyloxy)-2,3-dihydrochromen-4-one
> <PUBCHEM_IUPAC_SYSTEMATIC_NAME>
2-(4-methoxyphenyl)-5,7-bis(trimethylsilyloxy)-2,3-dihydrochromen-4-one
> <PUBCHEM_IUPAC_TRADITIONAL_NAME>
2-(4-methoxyphenyl)-5,7-bis(trimethylsilyloxy)chroman-4-one
> <PUBCHEM_IUPAC_INCHI>
InChI=1S/C22H30O5Si2/c1-24-16-10-8-15(9-11-16)19-14-18(23)22-20(25-19)12-17(26-28(2,3)4)13-21(22)27-29(5,6)7/h8-13,19H,14H2,1-7H3
> <PUBCHEM_IUPAC_INCHIKEY>
FJDHAUUDTHQCBH-UHFFFAOYSA-N
> <PUBCHEM_EXACT_MASS>
430.16317712
> <PUBCHEM_MOLECULAR_FORMULA>
C22H30O5Si2
> <PUBCHEM_MOLECULAR_WEIGHT>
430.6
> <PUBCHEM_OPENEYE_CAN_SMILES>
COC1=CC=C(C=C1)C2CC(=O)C3=C(O2)C=C(C=C3O[Si](C)(C)C)O[Si](C)(C)C
> <PUBCHEM_OPENEYE_ISO_SMILES>
COC1=CC=C(C=C1)C2CC(=O)C3=C(O2)C=C(C=C3O[Si](C)(C)C)O[Si](C)(C)C
> <PUBCHEM_CACTVS_TPSA>
54
> <PUBCHEM_MONOISOTOPIC_WEIGHT>
430.16317712
> <PUBCHEM_TOTAL_CHARGE>
0
> <PUBCHEM_HEAVY_ATOM_COUNT>
29
> <PUBCHEM_ATOM_DEF_STEREO_COUNT>
0
> <PUBCHEM_ATOM_UDEF_STEREO_COUNT>
1
> <PUBCHEM_BOND_DEF_STEREO_COUNT>
0
> <PUBCHEM_BOND_UDEF_STEREO_COUNT>
0
> <PUBCHEM_ISOTOPIC_ATOM_COUNT>
0
> <PUBCHEM_COMPONENT_COUNT>
1
> <PUBCHEM_CACTVS_TAUTO_COUNT>
-1
> <PUBCHEM_COORDINATE_TYPE>
1
5
255
> <PUBCHEM_BONDANNOTATIONS>
10  11  8
10  12  8
11  16  8
12  17  8
14  24  8
14  25  8
15  16  8
15  17  8
24  26  8
25  27  8
26  28  8
27  28  8
8  14  3
$$$$
