528531
  -OEChem-10302200292D
 74 73  0     1  0  0  0  0  0999 V2000
    8.9282    1.7500    0.0000 C   0  0  3  0  0  0  0  0  0  0  0  0
    9.7942    2.2500    0.0000 C   0  0  0  0  0  0  0  0  0  0  0  0
    8.0622    2.2500    0.0000 C   0  0  0  0  0  0  0  0  0  0  0  0
    8.9282    0.7500    0.0000 C   0  0  0  0  0  0  0  0  0  0  0  0
   10.6603    1.7500    0.0000 C   0  0  0  0  0  0  0  0  0  0  0  0
    7.1962    1.7500    0.0000 C   0  0  0  0  0  0  0  0  0  0  0  0
    8.0622    0.2500    0.0000 C   0  0  0  0  0  0  0  0  0  0  0  0
   11.5263    2.2500    0.0000 C   0  0  0  0  0  0  0  0  0  0  0  0
    6.3301    2.2500    0.0000 C   0  0  0  0  0  0  0  0  0  0  0  0
   12.3923    1.7500    0.0000 C   0  0  0  0  0  0  0  0  0  0  0  0
    8.0622   -0.7500    0.0000 C   0  0  0  0  0  0  0  0  0  0  0  0
    5.4641    1.7500    0.0000 C   0  0  0  0  0  0  0  0  0  0  0  0
   13.2583    2.2500    0.0000 C   0  0  0  0  0  0  0  0  0  0  0  0
    4.5981    2.2500    0.0000 C   0  0  0  0  0  0  0  0  0  0  0  0
   14.1244    1.7500    0.0000 C   0  0  0  0  0  0  0  0  0  0  0  0
    7.1962   -1.2500    0.0000 C   0  0  0  0  0  0  0  0  0  0  0  0
   14.9904    2.2500    0.0000 C   0  0  0  0  0  0  0  0  0  0  0  0
    3.7320    1.7500    0.0000 C   0  0  0  0  0  0  0  0  0  0  0  0
   15.8564    1.7500    0.0000 C   0  0  0  0  0  0  0  0  0  0  0  0
    7.1962   -2.2500    0.0000 C   0  0  0  0  0  0  0  0  0  0  0  0
    2.8660    2.2500    0.0000 C   0  0  0  0  0  0  0  0  0  0  0  0
   16.7224    2.2500    0.0000 C   0  0  0  0  0  0  0  0  0  0  0  0
    2.0000    1.7500    0.0000 C   0  0  0  0  0  0  0  0  0  0  0  0
   17.5885    1.7500    0.0000 C   0  0  0  0  0  0  0  0  0  0  0  0
    9.4651    1.4400    0.0000 H   0  0  0  0  0  0  0  0  0  0  0  0
   10.1928    2.7250    0.0000 H   0  0  0  0  0  0  0  0  0  0  0  0
    9.3957    2.7250    0.0000 H   0  0  0  0  0  0  0  0  0  0  0  0
    8.4607    2.7250    0.0000 H   0  0  0  0  0  0  0  0  0  0  0  0
    7.6636    2.7250    0.0000 H   0  0  0  0  0  0  0  0  0  0  0  0
    9.1403    0.1674    0.0000 H   0  0  0  0  0  0  0  0  0  0  0  0
    9.5388    0.8577    0.0000 H   0  0  0  0  0  0  0  0  0  0  0  0
   10.2617    1.2750    0.0000 H   0  0  0  0  0  0  0  0  0  0  0  0
   11.0588    1.2750    0.0000 H   0  0  0  0  0  0  0  0  0  0  0  0
    6.7976    1.2750    0.0000 H   0  0  0  0  0  0  0  0  0  0  0  0
    7.5947    1.2750    0.0000 H   0  0  0  0  0  0  0  0  0  0  0  0
    7.8501    0.8326    0.0000 H   0  0  0  0  0  0  0  0  0  0  0  0
    7.4516    0.1423    0.0000 H   0  0  0  0  0  0  0  0  0  0  0  0
   11.9248    2.7250    0.0000 H   0  0  0  0  0  0  0  0  0  0  0  0
   11.1278    2.7250    0.0000 H   0  0  0  0  0  0  0  0  0  0  0  0
    6.7287    2.7250    0.0000 H   0  0  0  0  0  0  0  0  0  0  0  0
    5.9316    2.7250    0.0000 H   0  0  0  0  0  0  0  0  0  0  0  0
   11.9938    1.2750    0.0000 H   0  0  0  0  0  0  0  0  0  0  0  0
   12.7908    1.2750    0.0000 H   0  0  0  0  0  0  0  0  0  0  0  0
    8.2742   -1.3326    0.0000 H   0  0  0  0  0  0  0  0  0  0  0  0
    8.6728   -0.6423    0.0000 H   0  0  0  0  0  0  0  0  0  0  0  0
    5.0656    1.2750    0.0000 H   0  0  0  0  0  0  0  0  0  0  0  0
    5.8626    1.2750    0.0000 H   0  0  0  0  0  0  0  0  0  0  0  0
   13.6569    2.7250    0.0000 H   0  0  0  0  0  0  0  0  0  0  0  0
   12.8598    2.7250    0.0000 H   0  0  0  0  0  0  0  0  0  0  0  0
    4.9966    2.7250    0.0000 H   0  0  0  0  0  0  0  0  0  0  0  0
    4.1996    2.7250    0.0000 H   0  0  0  0  0  0  0  0  0  0  0  0
   13.7258    1.2750    0.0000 H   0  0  0  0  0  0  0  0  0  0  0  0
   14.5229    1.2750    0.0000 H   0  0  0  0  0  0  0  0  0  0  0  0
    6.9841   -0.6674    0.0000 H   0  0  0  0  0  0  0  0  0  0  0  0
    6.5856   -1.3577    0.0000 H   0  0  0  0  0  0  0  0  0  0  0  0
   15.3889    2.7250    0.0000 H   0  0  0  0  0  0  0  0  0  0  0  0
   14.5919    2.7250    0.0000 H   0  0  0  0  0  0  0  0  0  0  0  0
    3.3335    1.2750    0.0000 H   0  0  0  0  0  0  0  0  0  0  0  0
    4.1306    1.2750    0.0000 H   0  0  0  0  0  0  0  0  0  0  0  0
   15.4579    1.2750    0.0000 H   0  0  0  0  0  0  0  0  0  0  0  0
   16.2549    1.2750    0.0000 H   0  0  0  0  0  0  0  0  0  0  0  0
    6.5762   -2.2500    0.0000 H   0  0  0  0  0  0  0  0  0  0  0  0
    7.1962   -2.8700    0.0000 H   0  0  0  0  0  0  0  0  0  0  0  0
    7.8162   -2.2500    0.0000 H   0  0  0  0  0  0  0  0  0  0  0  0
    3.2646    2.7250    0.0000 H   0  0  0  0  0  0  0  0  0  0  0  0
    2.4675    2.7250    0.0000 H   0  0  0  0  0  0  0  0  0  0  0  0
   17.1210    2.7250    0.0000 H   0  0  0  0  0  0  0  0  0  0  0  0
   16.3239    2.7250    0.0000 H   0  0  0  0  0  0  0  0  0  0  0  0
    1.6900    2.2869    0.0000 H   0  0  0  0  0  0  0  0  0  0  0  0
    1.4631    1.4400    0.0000 H   0  0  0  0  0  0  0  0  0  0  0  0
    2.3100    1.2131    0.0000 H   0  0  0  0  0  0  0  0  0  0  0  0
   17.2785    1.2131    0.0000 H   0  0  0  0  0  0  0  0  0  0  0  0
   18.1254    1.4400    0.0000 H   0  0  0  0  0  0  0  0  0  0  0  0
   17.8985    2.2869    0.0000 H   0  0  0  0  0  0  0  0  0  0  0  0
  1  2  1  0  0  0  0
  1  3  1  0  0  0  0
  1  4  1  0  0  0  0
  1 25  1  0  0  0  0
  2  5  1  0  0  0  0
  2 26  1  0  0  0  0
  2 27  1  0  0  0  0
  3  6  1  0  0  0  0
  3 28  1  0  0  0  0
  3 29  1  0  0  0  0
  4  7  1  0  0  0  0
  4 30  1  0  0  0  0
  4 31  1  0  0  0  0
  5  8  1  0  0  0  0
  5 32  1  0  0  0  0
  5 33  1  0  0  0  0
  6  9  1  0  0  0  0
  6 34  1  0  0  0  0
  6 35  1  0  0  0  0
  7 11  1  0  0  0  0
  7 36  1  0  0  0  0
  7 37  1  0  0  0  0
  8 10  1  0  0  0  0
  8 38  1  0  0  0  0
  8 39  1  0  0  0  0
  9 12  1  0  0  0  0
  9 40  1  0  0  0  0
  9 41  1  0  0  0  0
 10 13  1  0  0  0  0
 10 42  1  0  0  0  0
 10 43  1  0  0  0  0
 11 16  1  0  0  0  0
 11 44  1  0  0  0  0
 11 45  1  0  0  0  0
 12 14  1  0  0  0  0
 12 46  1  0  0  0  0
 12 47  1  0  0  0  0
 13 15  1  0  0  0  0
 13 48  1  0  0  0  0
 13 49  1  0  0  0  0
 14 18  1  0  0  0  0
 14 50  1  0  0  0  0
 14 51  1  0  0  0  0
 15 17  1  0  0  0  0
 15 52  1  0  0  0  0
 15 53  1  0  0  0  0
 16 20  1  0  0  0  0
 16 54  1  0  0  0  0
 16 55  1  0  0  0  0
 17 19  1  0  0  0  0
 17 56  1  0  0  0  0
 17 57  1  0  0  0  0
 18 21  1  0  0  0  0
 18 58  1  0  0  0  0
 18 59  1  0  0  0  0
 19 22  1  0  0  0  0
 19 60  1  0  0  0  0
 19 61  1  0  0  0  0
 20 62  1  0  0  0  0
 20 63  1  0  0  0  0
 20 64  1  0  0  0  0
 21 23  1  0  0  0  0
 21 65  1  0  0  0  0
 21 66  1  0  0  0  0
 22 24  1  0  0  0  0
 22 67  1  0  0  0  0
 22 68  1  0  0  0  0
 23 69  1  0  0  0  0
 23 70  1  0  0  0  0
 23 71  1  0  0  0  0
 24 72  1  0  0  0  0
 24 73  1  0  0  0  0
 24 74  1  0  0  0  0
M  END
> <PUBCHEM_COMPOUND_CID>
528531
> <PUBCHEM_COMPOUND_CANONICALIZED>
1
> <PUBCHEM_CACTVS_COMPLEXITY>
208
> <PUBCHEM_CACTVS_HBOND_ACCEPTOR>
0
> <PUBCHEM_CACTVS_HBOND_DONOR>
0
> <PUBCHEM_CACTVS_ROTATABLE_BOND>
20
> <PUBCHEM_CACTVS_SUBSKEYS>
AAADcfB4AAAAAAAAAAAAAAAAAAAAAAAAAAAAAAAAAAAAAAAAAAAAGAAAAAAADQCAAAACAAAAAAAAAAAAAAAAAAAAAAAAAAAAAAAAAAIAAAAAAAAAAAAAAAEAgMAOAAAAAAAAAAAAAAAAAAAAAAAAAAAAAA==
> <PUBCHEM_IUPAC_OPENEYE_NAME>
9-pentylnonadecane
> <PUBCHEM_IUPAC_CAS_NAME>
9-pentylnonadecane
> <PUBCHEM_IUPAC_NAME_MARKUP>
9-pentylnonadecane
> <PUBCHEM_IUPAC_NAME>
9-pentylnonadecane
> <PUBCHEM_IUPAC_SYSTEMATIC_NAME>
9-pentylnonadecane
> <PUBCHEM_IUPAC_TRADITIONAL_NAME>
9-amylnonadecane
> <PUBCHEM_IUPAC_INCHI>
InChI=1S/C24H50/c1-4-7-10-12-14-15-17-20-23-24(21-18-9-6-3)22-19-16-13-11-8-5-2/h24H,4-23H2,1-3H3
> <PUBCHEM_IUPAC_INCHIKEY>
MCQKROWVXFODMP-UHFFFAOYSA-N
> <PUBCHEM_XLOGP3_AA>
12.9
> <PUBCHEM_EXACT_MASS>
338.391251595
> <PUBCHEM_MOLECULAR_FORMULA>
C24H50
> <PUBCHEM_MOLECULAR_WEIGHT>
338.7
> <PUBCHEM_OPENEYE_CAN_SMILES>
CCCCCCCCCCC(CCCCC)CCCCCCCC
> <PUBCHEM_OPENEYE_ISO_SMILES>
CCCCCCCCCCC(CCCCC)CCCCCCCC
> <PUBCHEM_CACTVS_TPSA>
0
> <PUBCHEM_MONOISOTOPIC_WEIGHT>
338.391251595
> <PUBCHEM_TOTAL_CHARGE>
0
> <PUBCHEM_HEAVY_ATOM_COUNT>
24
> <PUBCHEM_ATOM_DEF_STEREO_COUNT>
0
> <PUBCHEM_ATOM_UDEF_STEREO_COUNT>
1
> <PUBCHEM_BOND_DEF_STEREO_COUNT>
0
> <PUBCHEM_BOND_UDEF_STEREO_COUNT>
0
> <PUBCHEM_ISOTOPIC_ATOM_COUNT>
0
> <PUBCHEM_COMPONENT_COUNT>
1
> <PUBCHEM_CACTVS_TAUTO_COUNT>
-1
> <PUBCHEM_COORDINATE_TYPE>
1
5
255
> <PUBCHEM_BONDANNOTATIONS>
1  4  3
$$$$
