528513
  -OEChem-10302200292D
 68 67  0     1  0  0  0  0  0999 V2000
    7.1962    1.0000    0.0000 C   0  0  3  0  0  0  0  0  0  0  0  0
    8.0622    1.5000    0.0000 C   0  0  0  0  0  0  0  0  0  0  0  0
    6.3301    1.5000    0.0000 C   0  0  0  0  0  0  0  0  0  0  0  0
    7.1962    0.0000    0.0000 C   0  0  0  0  0  0  0  0  0  0  0  0
    8.9282    1.0000    0.0000 C   0  0  0  0  0  0  0  0  0  0  0  0
    5.4641    1.0000    0.0000 C   0  0  0  0  0  0  0  0  0  0  0  0
    9.7942    1.5000    0.0000 C   0  0  0  0  0  0  0  0  0  0  0  0
   10.6603    1.0000    0.0000 C   0  0  0  0  0  0  0  0  0  0  0  0
    6.3301   -0.5000    0.0000 C   0  0  0  0  0  0  0  0  0  0  0  0
    4.5981    1.5000    0.0000 C   0  0  0  0  0  0  0  0  0  0  0  0
   11.5263    1.5000    0.0000 C   0  0  0  0  0  0  0  0  0  0  0  0
   12.3923    1.0000    0.0000 C   0  0  0  0  0  0  0  0  0  0  0  0
    3.7320    1.0000    0.0000 C   0  0  0  0  0  0  0  0  0  0  0  0
   13.2583    1.5000    0.0000 C   0  0  0  0  0  0  0  0  0  0  0  0
   14.1244    1.0000    0.0000 C   0  0  0  0  0  0  0  0  0  0  0  0
    6.3301   -1.5000    0.0000 C   0  0  0  0  0  0  0  0  0  0  0  0
    2.8660    1.5000    0.0000 C   0  0  0  0  0  0  0  0  0  0  0  0
   14.9904    1.5000    0.0000 C   0  0  0  0  0  0  0  0  0  0  0  0
   15.8564    1.0000    0.0000 C   0  0  0  0  0  0  0  0  0  0  0  0
    2.0000    1.0000    0.0000 C   0  0  0  0  0  0  0  0  0  0  0  0
   16.7224    1.5000    0.0000 C   0  0  0  0  0  0  0  0  0  0  0  0
   17.5885    1.0000    0.0000 C   0  0  0  0  0  0  0  0  0  0  0  0
    6.6592    0.6900    0.0000 H   0  0  0  0  0  0  0  0  0  0  0  0
    8.4607    1.9750    0.0000 H   0  0  0  0  0  0  0  0  0  0  0  0
    7.6636    1.9750    0.0000 H   0  0  0  0  0  0  0  0  0  0  0  0
    6.7287    1.9750    0.0000 H   0  0  0  0  0  0  0  0  0  0  0  0
    5.9316    1.9750    0.0000 H   0  0  0  0  0  0  0  0  0  0  0  0
    7.4082   -0.5826    0.0000 H   0  0  0  0  0  0  0  0  0  0  0  0
    7.8067    0.1077    0.0000 H   0  0  0  0  0  0  0  0  0  0  0  0
    8.5297    0.5251    0.0000 H   0  0  0  0  0  0  0  0  0  0  0  0
    9.3267    0.5251    0.0000 H   0  0  0  0  0  0  0  0  0  0  0  0
    5.0656    0.5251    0.0000 H   0  0  0  0  0  0  0  0  0  0  0  0
    5.8626    0.5251    0.0000 H   0  0  0  0  0  0  0  0  0  0  0  0
   10.1928    1.9750    0.0000 H   0  0  0  0  0  0  0  0  0  0  0  0
    9.3957    1.9750    0.0000 H   0  0  0  0  0  0  0  0  0  0  0  0
   10.2617    0.5251    0.0000 H   0  0  0  0  0  0  0  0  0  0  0  0
   11.0588    0.5251    0.0000 H   0  0  0  0  0  0  0  0  0  0  0  0
    6.1181    0.0826    0.0000 H   0  0  0  0  0  0  0  0  0  0  0  0
    5.7196   -0.6077    0.0000 H   0  0  0  0  0  0  0  0  0  0  0  0
    4.9966    1.9750    0.0000 H   0  0  0  0  0  0  0  0  0  0  0  0
    4.1996    1.9750    0.0000 H   0  0  0  0  0  0  0  0  0  0  0  0
   11.9248    1.9750    0.0000 H   0  0  0  0  0  0  0  0  0  0  0  0
   11.1278    1.9750    0.0000 H   0  0  0  0  0  0  0  0  0  0  0  0
   11.9938    0.5251    0.0000 H   0  0  0  0  0  0  0  0  0  0  0  0
   12.7908    0.5251    0.0000 H   0  0  0  0  0  0  0  0  0  0  0  0
    3.3335    0.5251    0.0000 H   0  0  0  0  0  0  0  0  0  0  0  0
    4.1306    0.5251    0.0000 H   0  0  0  0  0  0  0  0  0  0  0  0
   13.6569    1.9750    0.0000 H   0  0  0  0  0  0  0  0  0  0  0  0
   12.8598    1.9750    0.0000 H   0  0  0  0  0  0  0  0  0  0  0  0
   13.7258    0.5251    0.0000 H   0  0  0  0  0  0  0  0  0  0  0  0
   14.5229    0.5251    0.0000 H   0  0  0  0  0  0  0  0  0  0  0  0
    5.7101   -1.5000    0.0000 H   0  0  0  0  0  0  0  0  0  0  0  0
    6.3301   -2.1200    0.0000 H   0  0  0  0  0  0  0  0  0  0  0  0
    6.9501   -1.5000    0.0000 H   0  0  0  0  0  0  0  0  0  0  0  0
    3.2646    1.9750    0.0000 H   0  0  0  0  0  0  0  0  0  0  0  0
    2.4675    1.9750    0.0000 H   0  0  0  0  0  0  0  0  0  0  0  0
   15.3889    1.9750    0.0000 H   0  0  0  0  0  0  0  0  0  0  0  0
   14.5919    1.9750    0.0000 H   0  0  0  0  0  0  0  0  0  0  0  0
   15.4579    0.5251    0.0000 H   0  0  0  0  0  0  0  0  0  0  0  0
   16.2549    0.5251    0.0000 H   0  0  0  0  0  0  0  0  0  0  0  0
    1.6900    1.5369    0.0000 H   0  0  0  0  0  0  0  0  0  0  0  0
    1.4631    0.6900    0.0000 H   0  0  0  0  0  0  0  0  0  0  0  0
    2.3100    0.4631    0.0000 H   0  0  0  0  0  0  0  0  0  0  0  0
   17.1210    1.9750    0.0000 H   0  0  0  0  0  0  0  0  0  0  0  0
   16.3239    1.9750    0.0000 H   0  0  0  0  0  0  0  0  0  0  0  0
   17.2785    0.4631    0.0000 H   0  0  0  0  0  0  0  0  0  0  0  0
   18.1254    0.6900    0.0000 H   0  0  0  0  0  0  0  0  0  0  0  0
   17.8985    1.5369    0.0000 H   0  0  0  0  0  0  0  0  0  0  0  0
  1  2  1  0  0  0  0
  1  3  1  0  0  0  0
  1  4  1  0  0  0  0
  1 23  1  0  0  0  0
  2  5  1  0  0  0  0
  2 24  1  0  0  0  0
  2 25  1  0  0  0  0
  3  6  1  0  0  0  0
  3 26  1  0  0  0  0
  3 27  1  0  0  0  0
  4  9  1  0  0  0  0
  4 28  1  0  0  0  0
  4 29  1  0  0  0  0
  5  7  1  0  0  0  0
  5 30  1  0  0  0  0
  5 31  1  0  0  0  0
  6 10  1  0  0  0  0
  6 32  1  0  0  0  0
  6 33  1  0  0  0  0
  7  8  1  0  0  0  0
  7 34  1  0  0  0  0
  7 35  1  0  0  0  0
  8 11  1  0  0  0  0
  8 36  1  0  0  0  0
  8 37  1  0  0  0  0
  9 16  1  0  0  0  0
  9 38  1  0  0  0  0
  9 39  1  0  0  0  0
 10 13  1  0  0  0  0
 10 40  1  0  0  0  0
 10 41  1  0  0  0  0
 11 12  1  0  0  0  0
 11 42  1  0  0  0  0
 11 43  1  0  0  0  0
 12 14  1  0  0  0  0
 12 44  1  0  0  0  0
 12 45  1  0  0  0  0
 13 17  1  0  0  0  0
 13 46  1  0  0  0  0
 13 47  1  0  0  0  0
 14 15  1  0  0  0  0
 14 48  1  0  0  0  0
 14 49  1  0  0  0  0
 15 18  1  0  0  0  0
 15 50  1  0  0  0  0
 15 51  1  0  0  0  0
 16 52  1  0  0  0  0
 16 53  1  0  0  0  0
 16 54  1  0  0  0  0
 17 20  1  0  0  0  0
 17 55  1  0  0  0  0
 17 56  1  0  0  0  0
 18 19  1  0  0  0  0
 18 57  1  0  0  0  0
 18 58  1  0  0  0  0
 19 21  1  0  0  0  0
 19 59  1  0  0  0  0
 19 60  1  0  0  0  0
 20 61  1  0  0  0  0
 20 62  1  0  0  0  0
 20 63  1  0  0  0  0
 21 22  1  0  0  0  0
 21 64  1  0  0  0  0
 21 65  1  0  0  0  0
 22 66  1  0  0  0  0
 22 67  1  0  0  0  0
 22 68  1  0  0  0  0
M  END
> <PUBCHEM_COMPOUND_CID>
528513
> <PUBCHEM_COMPOUND_CANONICALIZED>
1
> <PUBCHEM_CACTVS_COMPLEXITY>
185
> <PUBCHEM_CACTVS_HBOND_ACCEPTOR>
0
> <PUBCHEM_CACTVS_HBOND_DONOR>
0
> <PUBCHEM_CACTVS_ROTATABLE_BOND>
18
> <PUBCHEM_CACTVS_SUBSKEYS>
AAADcfB4AAAAAAAAAAAAAAAAAAAAAAAAAAAAAAAAAAAAAAAAAAAAGAAAAAAADQCAAAACAAAAAAAAAAAAAAAAAAAAAAAAAAAAAAAAAAIAAAAAAAAAAAAAAAEAgMAOAAAAAAAAAAAAAAAAAAAAAAAAAAAAAA==
> <PUBCHEM_IUPAC_OPENEYE_NAME>
7-propylnonadecane
> <PUBCHEM_IUPAC_CAS_NAME>
7-propylnonadecane
> <PUBCHEM_IUPAC_NAME_MARKUP>
7-propylnonadecane
> <PUBCHEM_IUPAC_NAME>
7-propylnonadecane
> <PUBCHEM_IUPAC_SYSTEMATIC_NAME>
7-propylnonadecane
> <PUBCHEM_IUPAC_TRADITIONAL_NAME>
7-propylnonadecane
> <PUBCHEM_IUPAC_INCHI>
InChI=1S/C22H46/c1-4-7-9-11-12-13-14-15-16-18-21-22(19-6-3)20-17-10-8-5-2/h22H,4-21H2,1-3H3
> <PUBCHEM_IUPAC_INCHIKEY>
BUIUBTKDFHPLNN-UHFFFAOYSA-N
> <PUBCHEM_XLOGP3_AA>
11.8
> <PUBCHEM_EXACT_MASS>
310.359951467
> <PUBCHEM_MOLECULAR_FORMULA>
C22H46
> <PUBCHEM_MOLECULAR_WEIGHT>
310.6
> <PUBCHEM_OPENEYE_CAN_SMILES>
CCCCCCCCCCCCC(CCC)CCCCCC
> <PUBCHEM_OPENEYE_ISO_SMILES>
CCCCCCCCCCCCC(CCC)CCCCCC
> <PUBCHEM_CACTVS_TPSA>
0
> <PUBCHEM_MONOISOTOPIC_WEIGHT>
310.359951467
> <PUBCHEM_TOTAL_CHARGE>
0
> <PUBCHEM_HEAVY_ATOM_COUNT>
22
> <PUBCHEM_ATOM_DEF_STEREO_COUNT>
0
> <PUBCHEM_ATOM_UDEF_STEREO_COUNT>
1
> <PUBCHEM_BOND_DEF_STEREO_COUNT>
0
> <PUBCHEM_BOND_UDEF_STEREO_COUNT>
0
> <PUBCHEM_ISOTOPIC_ATOM_COUNT>
0
> <PUBCHEM_COMPONENT_COUNT>
1
> <PUBCHEM_CACTVS_TAUTO_COUNT>
-1
> <PUBCHEM_COORDINATE_TYPE>
1
5
255
> <PUBCHEM_BONDANNOTATIONS>
1  4  3
$$$$
