528508
  -OEChem-10302200292D
 65 64  0     1  0  0  0  0  0999 V2000
    6.3301    0.5000    0.0000 C   0  0  3  0  0  0  0  0  0  0  0  0
    7.1962    1.0000    0.0000 C   0  0  0  0  0  0  0  0  0  0  0  0
    5.4641    1.0000    0.0000 C   0  0  0  0  0  0  0  0  0  0  0  0
    8.0622    0.5000    0.0000 C   0  0  0  0  0  0  0  0  0  0  0  0
    6.3301   -0.5000    0.0000 C   0  0  0  0  0  0  0  0  0  0  0  0
    8.9282    1.0000    0.0000 C   0  0  0  0  0  0  0  0  0  0  0  0
    4.5981    0.5000    0.0000 C   0  0  0  0  0  0  0  0  0  0  0  0
    9.7942    0.5000    0.0000 C   0  0  0  0  0  0  0  0  0  0  0  0
   10.6603    1.0000    0.0000 C   0  0  0  0  0  0  0  0  0  0  0  0
   11.5263    0.5000    0.0000 C   0  0  0  0  0  0  0  0  0  0  0  0
    3.7320    1.0000    0.0000 C   0  0  0  0  0  0  0  0  0  0  0  0
   12.3923    1.0000    0.0000 C   0  0  0  0  0  0  0  0  0  0  0  0
    5.4641   -1.0000    0.0000 C   0  0  0  0  0  0  0  0  0  0  0  0
   13.2583    0.5000    0.0000 C   0  0  0  0  0  0  0  0  0  0  0  0
   14.1244    1.0000    0.0000 C   0  0  0  0  0  0  0  0  0  0  0  0
    2.8660    0.5000    0.0000 C   0  0  0  0  0  0  0  0  0  0  0  0
   14.9904    0.5000    0.0000 C   0  0  0  0  0  0  0  0  0  0  0  0
   15.8564    1.0000    0.0000 C   0  0  0  0  0  0  0  0  0  0  0  0
    2.0000    1.0000    0.0000 C   0  0  0  0  0  0  0  0  0  0  0  0
   16.7224    0.5000    0.0000 C   0  0  0  0  0  0  0  0  0  0  0  0
   17.5885    1.0000    0.0000 C   0  0  0  0  0  0  0  0  0  0  0  0
    6.8671    0.1900    0.0000 H   0  0  0  0  0  0  0  0  0  0  0  0
    7.5947    1.4750    0.0000 H   0  0  0  0  0  0  0  0  0  0  0  0
    6.7976    1.4750    0.0000 H   0  0  0  0  0  0  0  0  0  0  0  0
    5.8626    1.4750    0.0000 H   0  0  0  0  0  0  0  0  0  0  0  0
    5.0656    1.4750    0.0000 H   0  0  0  0  0  0  0  0  0  0  0  0
    7.6636    0.0251    0.0000 H   0  0  0  0  0  0  0  0  0  0  0  0
    8.4607    0.0251    0.0000 H   0  0  0  0  0  0  0  0  0  0  0  0
    6.5422   -1.0826    0.0000 H   0  0  0  0  0  0  0  0  0  0  0  0
    6.9407   -0.3923    0.0000 H   0  0  0  0  0  0  0  0  0  0  0  0
    9.3267    1.4750    0.0000 H   0  0  0  0  0  0  0  0  0  0  0  0
    8.5297    1.4750    0.0000 H   0  0  0  0  0  0  0  0  0  0  0  0
    4.1996    0.0251    0.0000 H   0  0  0  0  0  0  0  0  0  0  0  0
    4.9966    0.0251    0.0000 H   0  0  0  0  0  0  0  0  0  0  0  0
    9.3957    0.0251    0.0000 H   0  0  0  0  0  0  0  0  0  0  0  0
   10.1928    0.0251    0.0000 H   0  0  0  0  0  0  0  0  0  0  0  0
   11.0588    1.4750    0.0000 H   0  0  0  0  0  0  0  0  0  0  0  0
   10.2617    1.4750    0.0000 H   0  0  0  0  0  0  0  0  0  0  0  0
   11.1278    0.0251    0.0000 H   0  0  0  0  0  0  0  0  0  0  0  0
   11.9248    0.0251    0.0000 H   0  0  0  0  0  0  0  0  0  0  0  0
    4.1306    1.4750    0.0000 H   0  0  0  0  0  0  0  0  0  0  0  0
    3.3335    1.4750    0.0000 H   0  0  0  0  0  0  0  0  0  0  0  0
   12.7908    1.4750    0.0000 H   0  0  0  0  0  0  0  0  0  0  0  0
   11.9938    1.4750    0.0000 H   0  0  0  0  0  0  0  0  0  0  0  0
    5.1541   -0.4631    0.0000 H   0  0  0  0  0  0  0  0  0  0  0  0
    4.9272   -1.3100    0.0000 H   0  0  0  0  0  0  0  0  0  0  0  0
    5.7741   -1.5369    0.0000 H   0  0  0  0  0  0  0  0  0  0  0  0
   12.8598    0.0251    0.0000 H   0  0  0  0  0  0  0  0  0  0  0  0
   13.6569    0.0251    0.0000 H   0  0  0  0  0  0  0  0  0  0  0  0
   14.5229    1.4750    0.0000 H   0  0  0  0  0  0  0  0  0  0  0  0
   13.7258    1.4750    0.0000 H   0  0  0  0  0  0  0  0  0  0  0  0
    2.4675    0.0251    0.0000 H   0  0  0  0  0  0  0  0  0  0  0  0
    3.2646    0.0251    0.0000 H   0  0  0  0  0  0  0  0  0  0  0  0
   14.5919    0.0251    0.0000 H   0  0  0  0  0  0  0  0  0  0  0  0
   15.3889    0.0251    0.0000 H   0  0  0  0  0  0  0  0  0  0  0  0
   16.2549    1.4750    0.0000 H   0  0  0  0  0  0  0  0  0  0  0  0
   15.4579    1.4750    0.0000 H   0  0  0  0  0  0  0  0  0  0  0  0
    2.3100    1.5369    0.0000 H   0  0  0  0  0  0  0  0  0  0  0  0
    1.4631    1.3100    0.0000 H   0  0  0  0  0  0  0  0  0  0  0  0
    1.6900    0.4631    0.0000 H   0  0  0  0  0  0  0  0  0  0  0  0
   16.3239    0.0251    0.0000 H   0  0  0  0  0  0  0  0  0  0  0  0
   17.1210    0.0251    0.0000 H   0  0  0  0  0  0  0  0  0  0  0  0
   17.8985    0.4631    0.0000 H   0  0  0  0  0  0  0  0  0  0  0  0
   18.1254    1.3100    0.0000 H   0  0  0  0  0  0  0  0  0  0  0  0
   17.2785    1.5369    0.0000 H   0  0  0  0  0  0  0  0  0  0  0  0
  1  2  1  0  0  0  0
  1  3  1  0  0  0  0
  1  5  1  0  0  0  0
  1 22  1  0  0  0  0
  2  4  1  0  0  0  0
  2 23  1  0  0  0  0
  2 24  1  0  0  0  0
  3  7  1  0  0  0  0
  3 25  1  0  0  0  0
  3 26  1  0  0  0  0
  4  6  1  0  0  0  0
  4 27  1  0  0  0  0
  4 28  1  0  0  0  0
  5 13  1  0  0  0  0
  5 29  1  0  0  0  0
  5 30  1  0  0  0  0
  6  8  1  0  0  0  0
  6 31  1  0  0  0  0
  6 32  1  0  0  0  0
  7 11  1  0  0  0  0
  7 33  1  0  0  0  0
  7 34  1  0  0  0  0
  8  9  1  0  0  0  0
  8 35  1  0  0  0  0
  8 36  1  0  0  0  0
  9 10  1  0  0  0  0
  9 37  1  0  0  0  0
  9 38  1  0  0  0  0
 10 12  1  0  0  0  0
 10 39  1  0  0  0  0
 10 40  1  0  0  0  0
 11 16  1  0  0  0  0
 11 41  1  0  0  0  0
 11 42  1  0  0  0  0
 12 14  1  0  0  0  0
 12 43  1  0  0  0  0
 12 44  1  0  0  0  0
 13 45  1  0  0  0  0
 13 46  1  0  0  0  0
 13 47  1  0  0  0  0
 14 15  1  0  0  0  0
 14 48  1  0  0  0  0
 14 49  1  0  0  0  0
 15 17  1  0  0  0  0
 15 50  1  0  0  0  0
 15 51  1  0  0  0  0
 16 19  1  0  0  0  0
 16 52  1  0  0  0  0
 16 53  1  0  0  0  0
 17 18  1  0  0  0  0
 17 54  1  0  0  0  0
 17 55  1  0  0  0  0
 18 20  1  0  0  0  0
 18 56  1  0  0  0  0
 18 57  1  0  0  0  0
 19 58  1  0  0  0  0
 19 59  1  0  0  0  0
 19 60  1  0  0  0  0
 20 21  1  0  0  0  0
 20 61  1  0  0  0  0
 20 62  1  0  0  0  0
 21 63  1  0  0  0  0
 21 64  1  0  0  0  0
 21 65  1  0  0  0  0
M  END
> <PUBCHEM_COMPOUND_CID>
528508
> <PUBCHEM_COMPOUND_CANONICALIZED>
1
> <PUBCHEM_CACTVS_COMPLEXITY>
173
> <PUBCHEM_CACTVS_HBOND_ACCEPTOR>
0
> <PUBCHEM_CACTVS_HBOND_DONOR>
0
> <PUBCHEM_CACTVS_ROTATABLE_BOND>
17
> <PUBCHEM_CACTVS_SUBSKEYS>
AAADcfB4AAAAAAAAAAAAAAAAAAAAAAAAAAAAAAAAAAAAAAAAAAAAGAAAAAAADQCAAAACAAAAAAAAAAAAAAAAAAAAAAAAAAAAAAAAAAIAAAAAAAAAAAAAAAEAgMAOAAAAAAAAAAAAAAAAAAAAAAAAAAAAAA==
> <PUBCHEM_IUPAC_OPENEYE_NAME>
6-ethylnonadecane
> <PUBCHEM_IUPAC_CAS_NAME>
6-ethylnonadecane
> <PUBCHEM_IUPAC_NAME_MARKUP>
6-ethylnonadecane
> <PUBCHEM_IUPAC_NAME>
6-ethylnonadecane
> <PUBCHEM_IUPAC_SYSTEMATIC_NAME>
6-ethylnonadecane
> <PUBCHEM_IUPAC_TRADITIONAL_NAME>
6-ethylnonadecane
> <PUBCHEM_IUPAC_INCHI>
InChI=1S/C21H44/c1-4-7-9-10-11-12-13-14-15-16-18-20-21(6-3)19-17-8-5-2/h21H,4-20H2,1-3H3
> <PUBCHEM_IUPAC_INCHIKEY>
QRLUEOCYONDNRP-UHFFFAOYSA-N
> <PUBCHEM_XLOGP3_AA>
11.3
> <PUBCHEM_EXACT_MASS>
296.344301404
> <PUBCHEM_MOLECULAR_FORMULA>
C21H44
> <PUBCHEM_MOLECULAR_WEIGHT>
296.6
> <PUBCHEM_OPENEYE_CAN_SMILES>
CCCCCCCCCCCCCC(CC)CCCCC
> <PUBCHEM_OPENEYE_ISO_SMILES>
CCCCCCCCCCCCCC(CC)CCCCC
> <PUBCHEM_CACTVS_TPSA>
0
> <PUBCHEM_MONOISOTOPIC_WEIGHT>
296.344301404
> <PUBCHEM_TOTAL_CHARGE>
0
> <PUBCHEM_HEAVY_ATOM_COUNT>
21
> <PUBCHEM_ATOM_DEF_STEREO_COUNT>
0
> <PUBCHEM_ATOM_UDEF_STEREO_COUNT>
1
> <PUBCHEM_BOND_DEF_STEREO_COUNT>
0
> <PUBCHEM_BOND_UDEF_STEREO_COUNT>
0
> <PUBCHEM_ISOTOPIC_ATOM_COUNT>
0
> <PUBCHEM_COMPONENT_COUNT>
1
> <PUBCHEM_CACTVS_TAUTO_COUNT>
-1
> <PUBCHEM_COORDINATE_TYPE>
1
5
255
> <PUBCHEM_BONDANNOTATIONS>
1  5  3
$$$$
