528593
  -OEChem-10302200292D
 83 83  0     1  0  0  0  0  0999 V2000
    3.7320    2.6830    0.0000 Si  0  0  0  0  0  0  0  0  0  0  0  0
    6.3301    3.1830    0.0000 Si  0  0  0  0  0  0  0  0  0  0  0  0
    3.7320   -3.3170    0.0000 Si  0  0  0  0  0  0  0  0  0  0  0  0
    3.7320    1.6830    0.0000 O   0  0  0  0  0  0  0  0  0  0  0  0
    5.4641    2.6830    0.0000 O   0  0  0  0  0  0  0  0  0  0  0  0
    4.5981   -2.8170    0.0000 O   0  0  0  0  0  0  0  0  0  0  0  0
    6.3301    1.1830    0.0000 O   0  0  0  0  0  0  0  0  0  0  0  0
    3.7320    3.6830    0.0000 C   0  0  0  0  0  0  0  0  0  0  0  0
    7.1962    3.6830    0.0000 C   0  0  0  0  0  0  0  0  0  0  0  0
    2.8660   -3.8170    0.0000 C   0  0  0  0  0  0  0  0  0  0  0  0
    3.7320    4.6830    0.0000 C   0  0  0  0  0  0  0  0  0  0  0  0
    2.7320    3.6830    0.0000 C   0  0  0  0  0  0  0  0  0  0  0  0
    4.7320    3.6830    0.0000 C   0  0  0  0  0  0  0  0  0  0  0  0
    2.7320    2.6830    0.0000 C   0  0  0  0  0  0  0  0  0  0  0  0
    4.7320    2.6830    0.0000 C   0  0  0  0  0  0  0  0  0  0  0  0
    4.5981    1.1830    0.0000 C   0  0  3  0  0  0  0  0  0  0  0  0
    8.0622    4.1830    0.0000 C   0  0  0  0  0  0  0  0  0  0  0  0
    6.6962    4.5490    0.0000 C   0  0  0  0  0  0  0  0  0  0  0  0
    7.6962    2.8170    0.0000 C   0  0  0  0  0  0  0  0  0  0  0  0
    5.8301    4.0490    0.0000 C   0  0  0  0  0  0  0  0  0  0  0  0
    6.8301    2.3170    0.0000 C   0  0  0  0  0  0  0  0  0  0  0  0
    2.0000   -4.3170    0.0000 C   0  0  0  0  0  0  0  0  0  0  0  0
    3.3660   -4.6830    0.0000 C   0  0  0  0  0  0  0  0  0  0  0  0
    2.3660   -2.9510    0.0000 C   0  0  0  0  0  0  0  0  0  0  0  0
    5.4641    1.6830    0.0000 C   0  0  0  0  0  0  0  0  0  0  0  0
    4.2320   -4.1830    0.0000 C   0  0  0  0  0  0  0  0  0  0  0  0
    3.2320   -2.4510    0.0000 C   0  0  0  0  0  0  0  0  0  0  0  0
    4.5981    0.1830    0.0000 C   0  0  0  0  0  0  0  0  0  0  0  0
    4.5981   -1.8170    0.0000 C   0  0  0  0  0  0  0  0  0  0  0  0
    5.4641   -0.3170    0.0000 C   0  0  0  0  0  0  0  0  0  0  0  0
    3.7320   -0.3170    0.0000 C   0  0  0  0  0  0  0  0  0  0  0  0
    5.4641   -1.3170    0.0000 C   0  0  0  0  0  0  0  0  0  0  0  0
    3.7320   -1.3170    0.0000 C   0  0  0  0  0  0  0  0  0  0  0  0
    4.3520    4.6830    0.0000 H   0  0  0  0  0  0  0  0  0  0  0  0
    3.7320    5.3030    0.0000 H   0  0  0  0  0  0  0  0  0  0  0  0
    3.1120    4.6830    0.0000 H   0  0  0  0  0  0  0  0  0  0  0  0
    2.7320    4.3030    0.0000 H   0  0  0  0  0  0  0  0  0  0  0  0
    2.1120    3.6830    0.0000 H   0  0  0  0  0  0  0  0  0  0  0  0
    2.7320    3.0630    0.0000 H   0  0  0  0  0  0  0  0  0  0  0  0
    4.7320    3.0630    0.0000 H   0  0  0  0  0  0  0  0  0  0  0  0
    5.3520    3.6830    0.0000 H   0  0  0  0  0  0  0  0  0  0  0  0
    4.7320    4.3030    0.0000 H   0  0  0  0  0  0  0  0  0  0  0  0
    2.7320    3.3030    0.0000 H   0  0  0  0  0  0  0  0  0  0  0  0
    2.1120    2.6830    0.0000 H   0  0  0  0  0  0  0  0  0  0  0  0
    2.7320    2.0630    0.0000 H   0  0  0  0  0  0  0  0  0  0  0  0
    4.7320    2.0630    0.0000 H   0  0  0  0  0  0  0  0  0  0  0  0
    5.3520    2.6830    0.0000 H   0  0  0  0  0  0  0  0  0  0  0  0
    4.7320    3.3030    0.0000 H   0  0  0  0  0  0  0  0  0  0  0  0
    4.5981    1.8030    0.0000 H   0  0  0  0  0  0  0  0  0  0  0  0
    8.3722    3.6461    0.0000 H   0  0  0  0  0  0  0  0  0  0  0  0
    8.5991    4.4930    0.0000 H   0  0  0  0  0  0  0  0  0  0  0  0
    7.7522    4.7200    0.0000 H   0  0  0  0  0  0  0  0  0  0  0  0
    7.2331    4.8590    0.0000 H   0  0  0  0  0  0  0  0  0  0  0  0
    6.3862    5.0860    0.0000 H   0  0  0  0  0  0  0  0  0  0  0  0
    6.1592    4.2390    0.0000 H   0  0  0  0  0  0  0  0  0  0  0  0
    7.1592    2.5070    0.0000 H   0  0  0  0  0  0  0  0  0  0  0  0
    8.0062    2.2800    0.0000 H   0  0  0  0  0  0  0  0  0  0  0  0
    8.2331    3.1270    0.0000 H   0  0  0  0  0  0  0  0  0  0  0  0
    6.3671    4.3590    0.0000 H   0  0  0  0  0  0  0  0  0  0  0  0
    5.5201    4.5860    0.0000 H   0  0  0  0  0  0  0  0  0  0  0  0
    5.2932    3.7390    0.0000 H   0  0  0  0  0  0  0  0  0  0  0  0
    6.2932    2.0070    0.0000 H   0  0  0  0  0  0  0  0  0  0  0  0
    7.1401    1.7800    0.0000 H   0  0  0  0  0  0  0  0  0  0  0  0
    7.3671    2.6270    0.0000 H   0  0  0  0  0  0  0  0  0  0  0  0
    1.6900   -3.7800    0.0000 H   0  0  0  0  0  0  0  0  0  0  0  0
    1.4631   -4.6270    0.0000 H   0  0  0  0  0  0  0  0  0  0  0  0
    2.3100   -4.8539    0.0000 H   0  0  0  0  0  0  0  0  0  0  0  0
    2.8291   -4.9930    0.0000 H   0  0  0  0  0  0  0  0  0  0  0  0
    3.6760   -5.2200    0.0000 H   0  0  0  0  0  0  0  0  0  0  0  0
    3.9030   -4.3730    0.0000 H   0  0  0  0  0  0  0  0  0  0  0  0
    2.9030   -2.6410    0.0000 H   0  0  0  0  0  0  0  0  0  0  0  0
    2.0560   -2.4140    0.0000 H   0  0  0  0  0  0  0  0  0  0  0  0
    1.8291   -3.2610    0.0000 H   0  0  0  0  0  0  0  0  0  0  0  0
    3.6951   -4.4930    0.0000 H   0  0  0  0  0  0  0  0  0  0  0  0
    4.5420   -4.7200    0.0000 H   0  0  0  0  0  0  0  0  0  0  0  0
    4.7690   -3.8730    0.0000 H   0  0  0  0  0  0  0  0  0  0  0  0
    3.7690   -2.1410    0.0000 H   0  0  0  0  0  0  0  0  0  0  0  0
    2.9220   -1.9140    0.0000 H   0  0  0  0  0  0  0  0  0  0  0  0
    2.6951   -2.7610    0.0000 H   0  0  0  0  0  0  0  0  0  0  0  0
    6.0010   -0.0070    0.0000 H   0  0  0  0  0  0  0  0  0  0  0  0
    3.1951   -0.0070    0.0000 H   0  0  0  0  0  0  0  0  0  0  0  0
    6.0010   -1.6270    0.0000 H   0  0  0  0  0  0  0  0  0  0  0  0
    3.1951   -1.6270    0.0000 H   0  0  0  0  0  0  0  0  0  0  0  0
  1  4  1  0  0  0  0
  1  8  1  0  0  0  0
  1 14  1  0  0  0  0
  1 15  1  0  0  0  0
  2  5  1  0  0  0  0
  2  9  1  0  0  0  0
  2 20  1  0  0  0  0
  2 21  1  0  0  0  0
  3  6  1  0  0  0  0
  3 10  1  0  0  0  0
  3 26  1  0  0  0  0
  3 27  1  0  0  0  0
  4 16  1  0  0  0  0
  5 25  1  0  0  0  0
  6 29  1  0  0  0  0
  7 25  2  0  0  0  0
  8 11  1  0  0  0  0
  8 12  1  0  0  0  0
  8 13  1  0  0  0  0
  9 17  1  0  0  0  0
  9 18  1  0  0  0  0
  9 19  1  0  0  0  0
 10 22  1  0  0  0  0
 10 23  1  0  0  0  0
 10 24  1  0  0  0  0
 11 34  1  0  0  0  0
 11 35  1  0  0  0  0
 11 36  1  0  0  0  0
 12 37  1  0  0  0  0
 12 38  1  0  0  0  0
 12 39  1  0  0  0  0
 13 40  1  0  0  0  0
 13 41  1  0  0  0  0
 13 42  1  0  0  0  0
 14 43  1  0  0  0  0
 14 44  1  0  0  0  0
 14 45  1  0  0  0  0
 15 46  1  0  0  0  0
 15 47  1  0  0  0  0
 15 48  1  0  0  0  0
 16 25  1  0  0  0  0
 16 28  1  0  0  0  0
 16 49  1  0  0  0  0
 17 50  1  0  0  0  0
 17 51  1  0  0  0  0
 17 52  1  0  0  0  0
 18 53  1  0  0  0  0
 18 54  1  0  0  0  0
 18 55  1  0  0  0  0
 19 56  1  0  0  0  0
 19 57  1  0  0  0  0
 19 58  1  0  0  0  0
 20 59  1  0  0  0  0
 20 60  1  0  0  0  0
 20 61  1  0  0  0  0
 21 62  1  0  0  0  0
 21 63  1  0  0  0  0
 21 64  1  0  0  0  0
 22 65  1  0  0  0  0
 22 66  1  0  0  0  0
 22 67  1  0  0  0  0
 23 68  1  0  0  0  0
 23 69  1  0  0  0  0
 23 70  1  0  0  0  0
 24 71  1  0  0  0  0
 24 72  1  0  0  0  0
 24 73  1  0  0  0  0
 26 74  1  0  0  0  0
 26 75  1  0  0  0  0
 26 76  1  0  0  0  0
 27 77  1  0  0  0  0
 27 78  1  0  0  0  0
 27 79  1  0  0  0  0
 28 30  2  0  0  0  0
 28 31  1  0  0  0  0
 29 32  2  0  0  0  0
 29 33  1  0  0  0  0
 30 32  1  0  0  0  0
 30 80  1  0  0  0  0
 31 33  2  0  0  0  0
 31 81  1  0  0  0  0
 32 82  1  0  0  0  0
 33 83  1  0  0  0  0
M  END
> <PUBCHEM_COMPOUND_CID>
528593
> <PUBCHEM_COMPOUND_CANONICALIZED>
1
> <PUBCHEM_CACTVS_COMPLEXITY>
659
> <PUBCHEM_CACTVS_HBOND_ACCEPTOR>
4
> <PUBCHEM_CACTVS_HBOND_DONOR>
0
> <PUBCHEM_CACTVS_ROTATABLE_BOND>
11
> <PUBCHEM_CACTVS_SUBSKEYS>
AAADcfB4OAwAAAAAAAAAAAAAAAAAAAAAAAAwAAAAAAAAAAABAAAAGhAAAEAADBSguAJyDoAAAAGIAiDSCAICAAAgIAAIiAFGCIgJJjKAFRKAMAAkwBEIiAeI6KSOIAAAAAAAAABAAAAAAAAAAAAAAAAAAA==
> <PUBCHEM_IUPAC_OPENEYE_NAME>
[tert-butyl(dimethyl)silyl] 2-[tert-butyl(dimethyl)silyl]oxy-2-[4-[tert-butyl(dimethyl)silyl]oxyphenyl]acetate
> <PUBCHEM_IUPAC_CAS_NAME>
2-[tert-butyl(dimethyl)silyl]oxy-2-[4-[tert-butyl(dimethyl)silyl]oxyphenyl]acetic acid [tert-butyl(dimethyl)silyl] ester
> <PUBCHEM_IUPAC_NAME_MARKUP>
[<I>tert</I>-butyl(dimethyl)silyl] 2-[<I>tert</I>-butyl(dimethyl)silyl]oxy-2-[4-[<I>tert</I>-butyl(dimethyl)silyl]oxyphenyl]acetate
> <PUBCHEM_IUPAC_NAME>
[tert-butyl(dimethyl)silyl] 2-[tert-butyl(dimethyl)silyl]oxy-2-[4-[tert-butyl(dimethyl)silyl]oxyphenyl]acetate
> <PUBCHEM_IUPAC_SYSTEMATIC_NAME>
[tert-butyl(dimethyl)silyl] 2-[tert-butyl(dimethyl)silyl]oxy-2-[4-[tert-butyl(dimethyl)silyl]oxyphenyl]ethanoate
> <PUBCHEM_IUPAC_TRADITIONAL_NAME>
2-[tert-butyl(dimethyl)silyl]oxy-2-[4-[tert-butyl(dimethyl)silyl]oxyphenyl]acetic acid [tert-butyl(dimethyl)silyl] ester
> <PUBCHEM_IUPAC_INCHI>
InChI=1S/C26H50O4Si3/c1-24(2,3)31(10,11)28-21-18-16-20(17-19-21)22(29-32(12,13)25(4,5)6)23(27)30-33(14,15)26(7,8)9/h16-19,22H,1-15H3
> <PUBCHEM_IUPAC_INCHIKEY>
DNJVKPPMOZUZSN-UHFFFAOYSA-N
> <PUBCHEM_EXACT_MASS>
510.30168968
> <PUBCHEM_MOLECULAR_FORMULA>
C26H50O4Si3
> <PUBCHEM_MOLECULAR_WEIGHT>
510.9
> <PUBCHEM_OPENEYE_CAN_SMILES>
CC(C)(C)[Si](C)(C)OC1=CC=C(C=C1)C(C(=O)O[Si](C)(C)C(C)(C)C)O[Si](C)(C)C(C)(C)C
> <PUBCHEM_OPENEYE_ISO_SMILES>
CC(C)(C)[Si](C)(C)OC1=CC=C(C=C1)C(C(=O)O[Si](C)(C)C(C)(C)C)O[Si](C)(C)C(C)(C)C
> <PUBCHEM_CACTVS_TPSA>
44.8
> <PUBCHEM_MONOISOTOPIC_WEIGHT>
510.30168968
> <PUBCHEM_TOTAL_CHARGE>
0
> <PUBCHEM_HEAVY_ATOM_COUNT>
33
> <PUBCHEM_ATOM_DEF_STEREO_COUNT>
0
> <PUBCHEM_ATOM_UDEF_STEREO_COUNT>
1
> <PUBCHEM_BOND_DEF_STEREO_COUNT>
0
> <PUBCHEM_BOND_UDEF_STEREO_COUNT>
0
> <PUBCHEM_ISOTOPIC_ATOM_COUNT>
0
> <PUBCHEM_COMPONENT_COUNT>
1
> <PUBCHEM_CACTVS_TAUTO_COUNT>
-1
> <PUBCHEM_COORDINATE_TYPE>
1
5
255
> <PUBCHEM_BONDANNOTATIONS>
16  25  3
28  30  8
28  31  8
29  32  8
29  33  8
30  32  8
31  33  8
$$$$
