528530
  -OEChem-10302200292D
 77 76  0     1  0  0  0  0  0999 V2000
    9.7942    1.7500    0.0000 C   0  0  3  0  0  0  0  0  0  0  0  0
   10.6603    2.2500    0.0000 C   0  0  0  0  0  0  0  0  0  0  0  0
    8.9282    2.2500    0.0000 C   0  0  0  0  0  0  0  0  0  0  0  0
    9.7942    0.7500    0.0000 C   0  0  0  0  0  0  0  0  0  0  0  0
   11.5263    1.7500    0.0000 C   0  0  0  0  0  0  0  0  0  0  0  0
    8.0622    1.7500    0.0000 C   0  0  0  0  0  0  0  0  0  0  0  0
    8.9282    0.2500    0.0000 C   0  0  0  0  0  0  0  0  0  0  0  0
   12.3923    2.2500    0.0000 C   0  0  0  0  0  0  0  0  0  0  0  0
    7.1962    2.2500    0.0000 C   0  0  0  0  0  0  0  0  0  0  0  0
   13.2583    1.7500    0.0000 C   0  0  0  0  0  0  0  0  0  0  0  0
    8.9282   -0.7500    0.0000 C   0  0  0  0  0  0  0  0  0  0  0  0
    6.3301    1.7500    0.0000 C   0  0  0  0  0  0  0  0  0  0  0  0
   14.1244    2.2500    0.0000 C   0  0  0  0  0  0  0  0  0  0  0  0
    5.4641    2.2500    0.0000 C   0  0  0  0  0  0  0  0  0  0  0  0
    8.0622   -1.2500    0.0000 C   0  0  0  0  0  0  0  0  0  0  0  0
   14.9904    1.7500    0.0000 C   0  0  0  0  0  0  0  0  0  0  0  0
    4.5981    1.7500    0.0000 C   0  0  0  0  0  0  0  0  0  0  0  0
   15.8564    2.2500    0.0000 C   0  0  0  0  0  0  0  0  0  0  0  0
    3.7320    2.2500    0.0000 C   0  0  0  0  0  0  0  0  0  0  0  0
   16.7224    1.7500    0.0000 C   0  0  0  0  0  0  0  0  0  0  0  0
    8.0622   -2.2500    0.0000 C   0  0  0  0  0  0  0  0  0  0  0  0
    2.8660    1.7500    0.0000 C   0  0  0  0  0  0  0  0  0  0  0  0
   17.5885    2.2500    0.0000 C   0  0  0  0  0  0  0  0  0  0  0  0
    2.0000    2.2500    0.0000 C   0  0  0  0  0  0  0  0  0  0  0  0
   18.4545    1.7500    0.0000 C   0  0  0  0  0  0  0  0  0  0  0  0
    9.2573    1.4400    0.0000 H   0  0  0  0  0  0  0  0  0  0  0  0
   11.0588    2.7250    0.0000 H   0  0  0  0  0  0  0  0  0  0  0  0
   10.2617    2.7250    0.0000 H   0  0  0  0  0  0  0  0  0  0  0  0
    9.3267    2.7250    0.0000 H   0  0  0  0  0  0  0  0  0  0  0  0
    8.5297    2.7250    0.0000 H   0  0  0  0  0  0  0  0  0  0  0  0
   10.0063    0.1674    0.0000 H   0  0  0  0  0  0  0  0  0  0  0  0
   10.4048    0.8577    0.0000 H   0  0  0  0  0  0  0  0  0  0  0  0
   11.1278    1.2750    0.0000 H   0  0  0  0  0  0  0  0  0  0  0  0
   11.9248    1.2750    0.0000 H   0  0  0  0  0  0  0  0  0  0  0  0
    7.6636    1.2750    0.0000 H   0  0  0  0  0  0  0  0  0  0  0  0
    8.4607    1.2750    0.0000 H   0  0  0  0  0  0  0  0  0  0  0  0
    8.7162    0.8326    0.0000 H   0  0  0  0  0  0  0  0  0  0  0  0
    8.3176    0.1423    0.0000 H   0  0  0  0  0  0  0  0  0  0  0  0
   12.7908    2.7250    0.0000 H   0  0  0  0  0  0  0  0  0  0  0  0
   11.9938    2.7250    0.0000 H   0  0  0  0  0  0  0  0  0  0  0  0
    7.5947    2.7250    0.0000 H   0  0  0  0  0  0  0  0  0  0  0  0
    6.7976    2.7250    0.0000 H   0  0  0  0  0  0  0  0  0  0  0  0
   12.8598    1.2750    0.0000 H   0  0  0  0  0  0  0  0  0  0  0  0
   13.6569    1.2750    0.0000 H   0  0  0  0  0  0  0  0  0  0  0  0
    9.1403   -1.3326    0.0000 H   0  0  0  0  0  0  0  0  0  0  0  0
    9.5388   -0.6423    0.0000 H   0  0  0  0  0  0  0  0  0  0  0  0
    5.9316    1.2750    0.0000 H   0  0  0  0  0  0  0  0  0  0  0  0
    6.7287    1.2750    0.0000 H   0  0  0  0  0  0  0  0  0  0  0  0
   14.5229    2.7250    0.0000 H   0  0  0  0  0  0  0  0  0  0  0  0
   13.7258    2.7250    0.0000 H   0  0  0  0  0  0  0  0  0  0  0  0
    5.8626    2.7250    0.0000 H   0  0  0  0  0  0  0  0  0  0  0  0
    5.0656    2.7250    0.0000 H   0  0  0  0  0  0  0  0  0  0  0  0
   14.5919    1.2750    0.0000 H   0  0  0  0  0  0  0  0  0  0  0  0
   15.3889    1.2750    0.0000 H   0  0  0  0  0  0  0  0  0  0  0  0
    7.8501   -0.6674    0.0000 H   0  0  0  0  0  0  0  0  0  0  0  0
    7.4516   -1.3577    0.0000 H   0  0  0  0  0  0  0  0  0  0  0  0
    4.1996    1.2750    0.0000 H   0  0  0  0  0  0  0  0  0  0  0  0
    4.9966    1.2750    0.0000 H   0  0  0  0  0  0  0  0  0  0  0  0
   16.2549    2.7250    0.0000 H   0  0  0  0  0  0  0  0  0  0  0  0
   15.4579    2.7250    0.0000 H   0  0  0  0  0  0  0  0  0  0  0  0
    4.1306    2.7250    0.0000 H   0  0  0  0  0  0  0  0  0  0  0  0
    3.3335    2.7250    0.0000 H   0  0  0  0  0  0  0  0  0  0  0  0
   16.3239    1.2750    0.0000 H   0  0  0  0  0  0  0  0  0  0  0  0
   17.1210    1.2750    0.0000 H   0  0  0  0  0  0  0  0  0  0  0  0
    7.4422   -2.2500    0.0000 H   0  0  0  0  0  0  0  0  0  0  0  0
    8.0622   -2.8700    0.0000 H   0  0  0  0  0  0  0  0  0  0  0  0
    8.6822   -2.2500    0.0000 H   0  0  0  0  0  0  0  0  0  0  0  0
    2.4675    1.2750    0.0000 H   0  0  0  0  0  0  0  0  0  0  0  0
    3.2646    1.2750    0.0000 H   0  0  0  0  0  0  0  0  0  0  0  0
   17.9870    2.7250    0.0000 H   0  0  0  0  0  0  0  0  0  0  0  0
   17.1899    2.7250    0.0000 H   0  0  0  0  0  0  0  0  0  0  0  0
    2.3100    2.7869    0.0000 H   0  0  0  0  0  0  0  0  0  0  0  0
    1.4631    2.5600    0.0000 H   0  0  0  0  0  0  0  0  0  0  0  0
    1.6900    1.7131    0.0000 H   0  0  0  0  0  0  0  0  0  0  0  0
   18.1445    1.2131    0.0000 H   0  0  0  0  0  0  0  0  0  0  0  0
   18.9914    1.4400    0.0000 H   0  0  0  0  0  0  0  0  0  0  0  0
   18.7645    2.2869    0.0000 H   0  0  0  0  0  0  0  0  0  0  0  0
  1  2  1  0  0  0  0
  1  3  1  0  0  0  0
  1  4  1  0  0  0  0
  1 26  1  0  0  0  0
  2  5  1  0  0  0  0
  2 27  1  0  0  0  0
  2 28  1  0  0  0  0
  3  6  1  0  0  0  0
  3 29  1  0  0  0  0
  3 30  1  0  0  0  0
  4  7  1  0  0  0  0
  4 31  1  0  0  0  0
  4 32  1  0  0  0  0
  5  8  1  0  0  0  0
  5 33  1  0  0  0  0
  5 34  1  0  0  0  0
  6  9  1  0  0  0  0
  6 35  1  0  0  0  0
  6 36  1  0  0  0  0
  7 11  1  0  0  0  0
  7 37  1  0  0  0  0
  7 38  1  0  0  0  0
  8 10  1  0  0  0  0
  8 39  1  0  0  0  0
  8 40  1  0  0  0  0
  9 12  1  0  0  0  0
  9 41  1  0  0  0  0
  9 42  1  0  0  0  0
 10 13  1  0  0  0  0
 10 43  1  0  0  0  0
 10 44  1  0  0  0  0
 11 15  1  0  0  0  0
 11 45  1  0  0  0  0
 11 46  1  0  0  0  0
 12 14  1  0  0  0  0
 12 47  1  0  0  0  0
 12 48  1  0  0  0  0
 13 16  1  0  0  0  0
 13 49  1  0  0  0  0
 13 50  1  0  0  0  0
 14 17  1  0  0  0  0
 14 51  1  0  0  0  0
 14 52  1  0  0  0  0
 15 21  1  0  0  0  0
 15 55  1  0  0  0  0
 15 56  1  0  0  0  0
 16 18  1  0  0  0  0
 16 53  1  0  0  0  0
 16 54  1  0  0  0  0
 17 19  1  0  0  0  0
 17 57  1  0  0  0  0
 17 58  1  0  0  0  0
 18 20  1  0  0  0  0
 18 59  1  0  0  0  0
 18 60  1  0  0  0  0
 19 22  1  0  0  0  0
 19 61  1  0  0  0  0
 19 62  1  0  0  0  0
 20 23  1  0  0  0  0
 20 63  1  0  0  0  0
 20 64  1  0  0  0  0
 21 65  1  0  0  0  0
 21 66  1  0  0  0  0
 21 67  1  0  0  0  0
 22 24  1  0  0  0  0
 22 68  1  0  0  0  0
 22 69  1  0  0  0  0
 23 25  1  0  0  0  0
 23 70  1  0  0  0  0
 23 71  1  0  0  0  0
 24 72  1  0  0  0  0
 24 73  1  0  0  0  0
 24 74  1  0  0  0  0
 25 75  1  0  0  0  0
 25 76  1  0  0  0  0
 25 77  1  0  0  0  0
M  END
> <PUBCHEM_COMPOUND_CID>
528530
> <PUBCHEM_COMPOUND_CANONICALIZED>
1
> <PUBCHEM_CACTVS_COMPLEXITY>
220
> <PUBCHEM_CACTVS_HBOND_ACCEPTOR>
0
> <PUBCHEM_CACTVS_HBOND_DONOR>
0
> <PUBCHEM_CACTVS_ROTATABLE_BOND>
21
> <PUBCHEM_CACTVS_SUBSKEYS>
AAADcfB4AAAAAAAAAAAAAAAAAAAAAAAAAAAAAAAAAAAAAAAAAAAAGAAAAAAADQCAAAACAAAAAAAAAAAAAAAAAAAAAAAAAAAAAAAAAAIAAAAAAAAAAAAAAAEAgMAOAAAAAAAAAAAAAAAAAAAAAAAAAAAAAA==
> <PUBCHEM_IUPAC_OPENEYE_NAME>
10-pentylicosane
> <PUBCHEM_IUPAC_CAS_NAME>
10-pentyleicosane
> <PUBCHEM_IUPAC_NAME_MARKUP>
10-pentylicosane
> <PUBCHEM_IUPAC_NAME>
10-pentylicosane
> <PUBCHEM_IUPAC_SYSTEMATIC_NAME>
10-pentylicosane
> <PUBCHEM_IUPAC_TRADITIONAL_NAME>
10-amyleicosane
> <PUBCHEM_IUPAC_INCHI>
InChI=1S/C25H52/c1-4-7-10-12-14-16-18-21-24-25(22-19-9-6-3)23-20-17-15-13-11-8-5-2/h25H,4-24H2,1-3H3
> <PUBCHEM_IUPAC_INCHIKEY>
ZJFLWBKTNCVPRR-UHFFFAOYSA-N
> <PUBCHEM_XLOGP3_AA>
13.5
> <PUBCHEM_EXACT_MASS>
352.406901659
> <PUBCHEM_MOLECULAR_FORMULA>
C25H52
> <PUBCHEM_MOLECULAR_WEIGHT>
352.7
> <PUBCHEM_OPENEYE_CAN_SMILES>
CCCCCCCCCCC(CCCCC)CCCCCCCCC
> <PUBCHEM_OPENEYE_ISO_SMILES>
CCCCCCCCCCC(CCCCC)CCCCCCCCC
> <PUBCHEM_CACTVS_TPSA>
0
> <PUBCHEM_MONOISOTOPIC_WEIGHT>
352.406901659
> <PUBCHEM_TOTAL_CHARGE>
0
> <PUBCHEM_HEAVY_ATOM_COUNT>
25
> <PUBCHEM_ATOM_DEF_STEREO_COUNT>
0
> <PUBCHEM_ATOM_UDEF_STEREO_COUNT>
1
> <PUBCHEM_BOND_DEF_STEREO_COUNT>
0
> <PUBCHEM_BOND_UDEF_STEREO_COUNT>
0
> <PUBCHEM_ISOTOPIC_ATOM_COUNT>
0
> <PUBCHEM_COMPONENT_COUNT>
1
> <PUBCHEM_CACTVS_TAUTO_COUNT>
-1
> <PUBCHEM_COORDINATE_TYPE>
1
5
255
> <PUBCHEM_BONDANNOTATIONS>
1  4  3
$$$$
