528529
  -OEChem-10302200292D
 54 57  0     1  0  0  0  0  0999 V2000
    4.6660    0.5000    0.0000 C   0  0  3  0  0  0  0  0  0  0  0  0
    4.6660   -0.5000    0.0000 C   0  0  3  0  0  0  0  0  0  0  0  0
    5.5321    1.0000    0.0000 C   0  0  3  0  0  0  0  0  0  0  0  0
    3.8000   -1.0000    0.0000 C   0  0  3  0  0  0  0  0  0  0  0  0
    5.5321    2.0000    0.0000 C   0  0  3  0  0  0  0  0  0  0  0  0
    3.8000   -2.0000    0.0000 C   0  0  3  0  0  0  0  0  0  0  0  0
    3.8000    1.0000    0.0000 C   0  0  0  0  0  0  0  0  0  0  0  0
    5.5321   -1.0000    0.0000 C   0  0  0  0  0  0  0  0  0  0  0  0
    6.4260    0.4653    0.0000 C   0  0  0  0  0  0  0  0  0  0  0  0
    2.9061   -0.4653    0.0000 C   0  0  0  0  0  0  0  0  0  0  0  0
    4.6660    2.5000    0.0000 C   0  0  0  0  0  0  0  0  0  0  0  0
    4.6660   -2.5000    0.0000 C   0  0  0  0  0  0  0  0  0  0  0  0
    3.8000    2.0000    0.0000 C   0  0  0  0  0  0  0  0  0  0  0  0
    5.5321   -2.0000    0.0000 C   0  0  0  0  0  0  0  0  0  0  0  0
    6.4260    2.5347    0.0000 C   0  0  0  0  0  0  0  0  0  0  0  0
    2.9061   -2.5347    0.0000 C   0  0  0  0  0  0  0  0  0  0  0  0
    7.3321    0.9792    0.0000 C   0  0  0  0  0  0  0  0  0  0  0  0
    2.0000   -0.9792    0.0000 C   0  0  0  0  0  0  0  0  0  0  0  0
    7.3321    2.0208    0.0000 C   0  0  0  0  0  0  0  0  0  0  0  0
    2.0000   -2.0208    0.0000 C   0  0  0  0  0  0  0  0  0  0  0  0
    4.1291    0.1900    0.0000 H   0  0  0  0  0  0  0  0  0  0  0  0
    5.2030   -0.1900    0.0000 H   0  0  0  0  0  0  0  0  0  0  0  0
    5.5273    0.3800    0.0000 H   0  0  0  0  0  0  0  0  0  0  0  0
    3.8048   -0.3800    0.0000 H   0  0  0  0  0  0  0  0  0  0  0  0
    5.5273    2.6200    0.0000 H   0  0  0  0  0  0  0  0  0  0  0  0
    3.8048   -2.6200    0.0000 H   0  0  0  0  0  0  0  0  0  0  0  0
    3.1894    1.1077    0.0000 H   0  0  0  0  0  0  0  0  0  0  0  0
    3.5880    0.4174    0.0000 H   0  0  0  0  0  0  0  0  0  0  0  0
    6.1426   -1.1077    0.0000 H   0  0  0  0  0  0  0  0  0  0  0  0
    5.7441   -0.4174    0.0000 H   0  0  0  0  0  0  0  0  0  0  0  0
    6.0214   -0.0044    0.0000 H   0  0  0  0  0  0  0  0  0  0  0  0
    6.8196   -0.0137    0.0000 H   0  0  0  0  0  0  0  0  0  0  0  0
    3.3107    0.0044    0.0000 H   0  0  0  0  0  0  0  0  0  0  0  0
    2.5124    0.0137    0.0000 H   0  0  0  0  0  0  0  0  0  0  0  0
    5.0646    2.9750    0.0000 H   0  0  0  0  0  0  0  0  0  0  0  0
    4.2675    2.9750    0.0000 H   0  0  0  0  0  0  0  0  0  0  0  0
    4.2675   -2.9750    0.0000 H   0  0  0  0  0  0  0  0  0  0  0  0
    5.0646   -2.9750    0.0000 H   0  0  0  0  0  0  0  0  0  0  0  0
    3.5880    2.5826    0.0000 H   0  0  0  0  0  0  0  0  0  0  0  0
    3.1894    1.8923    0.0000 H   0  0  0  0  0  0  0  0  0  0  0  0
    5.7441   -2.5826    0.0000 H   0  0  0  0  0  0  0  0  0  0  0  0
    6.1426   -1.8923    0.0000 H   0  0  0  0  0  0  0  0  0  0  0  0
    6.8196    3.0137    0.0000 H   0  0  0  0  0  0  0  0  0  0  0  0
    6.0214    3.0044    0.0000 H   0  0  0  0  0  0  0  0  0  0  0  0
    2.5124   -3.0137    0.0000 H   0  0  0  0  0  0  0  0  0  0  0  0
    3.3107   -3.0044    0.0000 H   0  0  0  0  0  0  0  0  0  0  0  0
    7.5411    0.3955    0.0000 H   0  0  0  0  0  0  0  0  0  0  0  0
    7.9429    1.0853    0.0000 H   0  0  0  0  0  0  0  0  0  0  0  0
    1.7909   -0.3955    0.0000 H   0  0  0  0  0  0  0  0  0  0  0  0
    1.3891   -1.0853    0.0000 H   0  0  0  0  0  0  0  0  0  0  0  0
    7.9429    1.9147    0.0000 H   0  0  0  0  0  0  0  0  0  0  0  0
    7.5411    2.6045    0.0000 H   0  0  0  0  0  0  0  0  0  0  0  0
    1.3891   -1.9147    0.0000 H   0  0  0  0  0  0  0  0  0  0  0  0
    1.7909   -2.6045    0.0000 H   0  0  0  0  0  0  0  0  0  0  0  0
  1  2  1  0  0  0  0
  1  3  1  0  0  0  0
  1  7  1  0  0  0  0
  1 21  1  0  0  0  0
  2  4  1  0  0  0  0
  2  8  1  0  0  0  0
  2 22  1  0  0  0  0
  3  5  1  0  0  0  0
  3  9  1  0  0  0  0
  3 23  1  0  0  0  0
  4  6  1  0  0  0  0
  4 10  1  0  0  0  0
  4 24  1  0  0  0  0
  5 11  1  0  0  0  0
  5 15  1  0  0  0  0
  5 25  1  0  0  0  0
  6 12  1  0  0  0  0
  6 16  1  0  0  0  0
  6 26  1  0  0  0  0
  7 13  1  0  0  0  0
  7 27  1  0  0  0  0
  7 28  1  0  0  0  0
  8 14  1  0  0  0  0
  8 29  1  0  0  0  0
  8 30  1  0  0  0  0
  9 17  1  0  0  0  0
  9 31  1  0  0  0  0
  9 32  1  0  0  0  0
 10 18  1  0  0  0  0
 10 33  1  0  0  0  0
 10 34  1  0  0  0  0
 11 13  1  0  0  0  0
 11 35  1  0  0  0  0
 11 36  1  0  0  0  0
 12 14  1  0  0  0  0
 12 37  1  0  0  0  0
 12 38  1  0  0  0  0
 13 39  1  0  0  0  0
 13 40  1  0  0  0  0
 14 41  1  0  0  0  0
 14 42  1  0  0  0  0
 15 19  1  0  0  0  0
 15 43  1  0  0  0  0
 15 44  1  0  0  0  0
 16 20  1  0  0  0  0
 16 45  1  0  0  0  0
 16 46  1  0  0  0  0
 17 19  1  0  0  0  0
 17 47  1  0  0  0  0
 17 48  1  0  0  0  0
 18 20  1  0  0  0  0
 18 49  1  0  0  0  0
 18 50  1  0  0  0  0
 19 51  1  0  0  0  0
 19 52  1  0  0  0  0
 20 53  1  0  0  0  0
 20 54  1  0  0  0  0
M  END
> <PUBCHEM_COMPOUND_CID>
528529
> <PUBCHEM_COMPOUND_CANONICALIZED>
1
> <PUBCHEM_CACTVS_COMPLEXITY>
288
> <PUBCHEM_CACTVS_HBOND_ACCEPTOR>
0
> <PUBCHEM_CACTVS_HBOND_DONOR>
0
> <PUBCHEM_CACTVS_ROTATABLE_BOND>
1
> <PUBCHEM_CACTVS_SUBSKEYS>
AAADcfB4AAAAAAAAAAAAAAAAAAAAAAAAAAAwYMGAAAAAAADAAAAAGAAAAAAADQCAAAAAAAAAAAAAAAAAAAAAAAAAAAAAAAAAAAAAAAIAAAAAAAAAAAAAAAEAgMAOgAAAAAAAAAAAAAQAACAAAAAAAAAAAA==
> <PUBCHEM_IUPAC_OPENEYE_NAME>
1-decalin-1-yldecalin
> <PUBCHEM_IUPAC_CAS_NAME>
1-(1,2,3,4,4a,5,6,7,8,8a-decahydronaphthalen-1-yl)-1,2,3,4,4a,5,6,7,8,8a-decahydronaphthalene
> <PUBCHEM_IUPAC_NAME_MARKUP>
1-(1,2,3,4,4<I>a</I>,5,6,7,8,8<I>a</I>-decahydronaphthalen-1-yl)-1,2,3,4,4<I>a</I>,5,6,7,8,8<I>a</I>-decahydronaphthalene
> <PUBCHEM_IUPAC_NAME>
1-(1,2,3,4,4a,5,6,7,8,8a-decahydronaphthalen-1-yl)-1,2,3,4,4a,5,6,7,8,8a-decahydronaphthalene
> <PUBCHEM_IUPAC_SYSTEMATIC_NAME>
1-(1,2,3,4,4a,5,6,7,8,8a-decahydronaphthalen-1-yl)-1,2,3,4,4a,5,6,7,8,8a-decahydronaphthalene
> <PUBCHEM_IUPAC_TRADITIONAL_NAME>
1-decalin-1-yldecalin
> <PUBCHEM_IUPAC_INCHI>
InChI=1S/C20H34/c1-3-11-17-15(7-1)9-5-13-19(17)20-14-6-10-16-8-2-4-12-18(16)20/h15-20H,1-14H2
> <PUBCHEM_IUPAC_INCHIKEY>
JXFVWHLVEZPNFX-UHFFFAOYSA-N
> <PUBCHEM_XLOGP3_AA>
8.4
> <PUBCHEM_EXACT_MASS>
274.266051085
> <PUBCHEM_MOLECULAR_FORMULA>
C20H34
> <PUBCHEM_MOLECULAR_WEIGHT>
274.5
> <PUBCHEM_OPENEYE_CAN_SMILES>
C1CCC2C(C1)CCCC2C3CCCC4C3CCCC4
> <PUBCHEM_OPENEYE_ISO_SMILES>
C1CCC2C(C1)CCCC2C3CCCC4C3CCCC4
> <PUBCHEM_CACTVS_TPSA>
0
> <PUBCHEM_MONOISOTOPIC_WEIGHT>
274.266051085
> <PUBCHEM_TOTAL_CHARGE>
0
> <PUBCHEM_HEAVY_ATOM_COUNT>
20
> <PUBCHEM_ATOM_DEF_STEREO_COUNT>
0
> <PUBCHEM_ATOM_UDEF_STEREO_COUNT>
6
> <PUBCHEM_BOND_DEF_STEREO_COUNT>
0
> <PUBCHEM_BOND_UDEF_STEREO_COUNT>
0
> <PUBCHEM_ISOTOPIC_ATOM_COUNT>
0
> <PUBCHEM_COMPONENT_COUNT>
1
> <PUBCHEM_CACTVS_TAUTO_COUNT>
-1
> <PUBCHEM_COORDINATE_TYPE>
1
5
255
> <PUBCHEM_BONDANNOTATIONS>
1  7  3
2  8  3
3  9  3
4  10  3
5  15  3
6  16  3
$$$$
