528533
  -OEChem-10302200292D
 59 58  0     1  0  0  0  0  0999 V2000
    6.3301    1.0000    0.0000 C   0  0  3  0  0  0  0  0  0  0  0  0
    7.1962    1.5000    0.0000 C   0  0  0  0  0  0  0  0  0  0  0  0
    5.4641    1.5000    0.0000 C   0  0  0  0  0  0  0  0  0  0  0  0
    6.3301    0.0000    0.0000 C   0  0  0  0  0  0  0  0  0  0  0  0
    8.0622    1.0000    0.0000 C   0  0  0  0  0  0  0  0  0  0  0  0
    8.9282    1.5000    0.0000 C   0  0  0  0  0  0  0  0  0  0  0  0
    4.5981    1.0000    0.0000 C   0  0  0  0  0  0  0  0  0  0  0  0
    9.7942    1.0000    0.0000 C   0  0  0  0  0  0  0  0  0  0  0  0
    5.4641   -0.5000    0.0000 C   0  0  0  0  0  0  0  0  0  0  0  0
    3.7320    1.5000    0.0000 C   0  0  0  0  0  0  0  0  0  0  0  0
   10.6603    1.5000    0.0000 C   0  0  0  0  0  0  0  0  0  0  0  0
   11.5263    1.0000    0.0000 C   0  0  0  0  0  0  0  0  0  0  0  0
    2.8660    1.0000    0.0000 C   0  0  0  0  0  0  0  0  0  0  0  0
   12.3923    1.5000    0.0000 C   0  0  0  0  0  0  0  0  0  0  0  0
    5.4641   -1.5000    0.0000 C   0  0  0  0  0  0  0  0  0  0  0  0
   13.2583    1.0000    0.0000 C   0  0  0  0  0  0  0  0  0  0  0  0
    2.0000    1.5000    0.0000 C   0  0  0  0  0  0  0  0  0  0  0  0
   14.1244    1.5000    0.0000 C   0  0  0  0  0  0  0  0  0  0  0  0
   14.9904    1.0000    0.0000 C   0  0  0  0  0  0  0  0  0  0  0  0
    6.8671    0.6900    0.0000 H   0  0  0  0  0  0  0  0  0  0  0  0
    7.5947    1.9750    0.0000 H   0  0  0  0  0  0  0  0  0  0  0  0
    6.7976    1.9750    0.0000 H   0  0  0  0  0  0  0  0  0  0  0  0
    5.8626    1.9750    0.0000 H   0  0  0  0  0  0  0  0  0  0  0  0
    5.0656    1.9750    0.0000 H   0  0  0  0  0  0  0  0  0  0  0  0
    6.5422   -0.5826    0.0000 H   0  0  0  0  0  0  0  0  0  0  0  0
    6.9407    0.1077    0.0000 H   0  0  0  0  0  0  0  0  0  0  0  0
    7.6636    0.5251    0.0000 H   0  0  0  0  0  0  0  0  0  0  0  0
    8.4607    0.5251    0.0000 H   0  0  0  0  0  0  0  0  0  0  0  0
    9.3267    1.9750    0.0000 H   0  0  0  0  0  0  0  0  0  0  0  0
    8.5297    1.9750    0.0000 H   0  0  0  0  0  0  0  0  0  0  0  0
    4.1996    0.5251    0.0000 H   0  0  0  0  0  0  0  0  0  0  0  0
    4.9966    0.5251    0.0000 H   0  0  0  0  0  0  0  0  0  0  0  0
    9.3957    0.5251    0.0000 H   0  0  0  0  0  0  0  0  0  0  0  0
   10.1928    0.5251    0.0000 H   0  0  0  0  0  0  0  0  0  0  0  0
    5.2520    0.0826    0.0000 H   0  0  0  0  0  0  0  0  0  0  0  0
    4.8535   -0.6077    0.0000 H   0  0  0  0  0  0  0  0  0  0  0  0
    4.1306    1.9750    0.0000 H   0  0  0  0  0  0  0  0  0  0  0  0
    3.3335    1.9750    0.0000 H   0  0  0  0  0  0  0  0  0  0  0  0
   11.0588    1.9750    0.0000 H   0  0  0  0  0  0  0  0  0  0  0  0
   10.2617    1.9750    0.0000 H   0  0  0  0  0  0  0  0  0  0  0  0
   11.1278    0.5251    0.0000 H   0  0  0  0  0  0  0  0  0  0  0  0
   11.9248    0.5251    0.0000 H   0  0  0  0  0  0  0  0  0  0  0  0
    2.4675    0.5251    0.0000 H   0  0  0  0  0  0  0  0  0  0  0  0
    3.2646    0.5251    0.0000 H   0  0  0  0  0  0  0  0  0  0  0  0
   12.7908    1.9750    0.0000 H   0  0  0  0  0  0  0  0  0  0  0  0
   11.9938    1.9750    0.0000 H   0  0  0  0  0  0  0  0  0  0  0  0
    4.8441   -1.5000    0.0000 H   0  0  0  0  0  0  0  0  0  0  0  0
    5.4641   -2.1200    0.0000 H   0  0  0  0  0  0  0  0  0  0  0  0
    6.0841   -1.5000    0.0000 H   0  0  0  0  0  0  0  0  0  0  0  0
   12.8598    0.5251    0.0000 H   0  0  0  0  0  0  0  0  0  0  0  0
   13.6569    0.5251    0.0000 H   0  0  0  0  0  0  0  0  0  0  0  0
    2.3100    2.0369    0.0000 H   0  0  0  0  0  0  0  0  0  0  0  0
    1.4631    1.8100    0.0000 H   0  0  0  0  0  0  0  0  0  0  0  0
    1.6900    0.9631    0.0000 H   0  0  0  0  0  0  0  0  0  0  0  0
   14.5229    1.9750    0.0000 H   0  0  0  0  0  0  0  0  0  0  0  0
   13.7258    1.9750    0.0000 H   0  0  0  0  0  0  0  0  0  0  0  0
   14.6804    0.4631    0.0000 H   0  0  0  0  0  0  0  0  0  0  0  0
   15.5273    0.6900    0.0000 H   0  0  0  0  0  0  0  0  0  0  0  0
   15.3004    1.5369    0.0000 H   0  0  0  0  0  0  0  0  0  0  0  0
  1  2  1  0  0  0  0
  1  3  1  0  0  0  0
  1  4  1  0  0  0  0
  1 20  1  0  0  0  0
  2  5  1  0  0  0  0
  2 21  1  0  0  0  0
  2 22  1  0  0  0  0
  3  7  1  0  0  0  0
  3 23  1  0  0  0  0
  3 24  1  0  0  0  0
  4  9  1  0  0  0  0
  4 25  1  0  0  0  0
  4 26  1  0  0  0  0
  5  6  1  0  0  0  0
  5 27  1  0  0  0  0
  5 28  1  0  0  0  0
  6  8  1  0  0  0  0
  6 29  1  0  0  0  0
  6 30  1  0  0  0  0
  7 10  1  0  0  0  0
  7 31  1  0  0  0  0
  7 32  1  0  0  0  0
  8 11  1  0  0  0  0
  8 33  1  0  0  0  0
  8 34  1  0  0  0  0
  9 15  1  0  0  0  0
  9 35  1  0  0  0  0
  9 36  1  0  0  0  0
 10 13  1  0  0  0  0
 10 37  1  0  0  0  0
 10 38  1  0  0  0  0
 11 12  1  0  0  0  0
 11 39  1  0  0  0  0
 11 40  1  0  0  0  0
 12 14  1  0  0  0  0
 12 41  1  0  0  0  0
 12 42  1  0  0  0  0
 13 17  1  0  0  0  0
 13 43  1  0  0  0  0
 13 44  1  0  0  0  0
 14 16  1  0  0  0  0
 14 45  1  0  0  0  0
 14 46  1  0  0  0  0
 15 47  1  0  0  0  0
 15 48  1  0  0  0  0
 15 49  1  0  0  0  0
 16 18  1  0  0  0  0
 16 50  1  0  0  0  0
 16 51  1  0  0  0  0
 17 52  1  0  0  0  0
 17 53  1  0  0  0  0
 17 54  1  0  0  0  0
 18 19  1  0  0  0  0
 18 55  1  0  0  0  0
 18 56  1  0  0  0  0
 19 57  1  0  0  0  0
 19 58  1  0  0  0  0
 19 59  1  0  0  0  0
M  END
> <PUBCHEM_COMPOUND_CID>
528533
> <PUBCHEM_COMPOUND_CANONICALIZED>
1
> <PUBCHEM_CACTVS_COMPLEXITY>
150
> <PUBCHEM_CACTVS_HBOND_ACCEPTOR>
0
> <PUBCHEM_CACTVS_HBOND_DONOR>
0
> <PUBCHEM_CACTVS_ROTATABLE_BOND>
15
> <PUBCHEM_CACTVS_SUBSKEYS>
AAADcfB4AAAAAAAAAAAAAAAAAAAAAAAAAAAAAAAAAAAAAAAAAAAAGAAAAAAADQCAAAACAAAAAAAAAAAAAAAAAAAAAAAAAAAAAAAAAAIAAAAAAAAAAAAAAAEAgMAOAAAAAAAAAAAAAAAAAAAAAAAAAAAAAA==
> <PUBCHEM_IUPAC_OPENEYE_NAME>
6-propylhexadecane
> <PUBCHEM_IUPAC_CAS_NAME>
6-propylhexadecane
> <PUBCHEM_IUPAC_NAME_MARKUP>
6-propylhexadecane
> <PUBCHEM_IUPAC_NAME>
6-propylhexadecane
> <PUBCHEM_IUPAC_SYSTEMATIC_NAME>
6-propylhexadecane
> <PUBCHEM_IUPAC_TRADITIONAL_NAME>
6-propylhexadecane
> <PUBCHEM_IUPAC_INCHI>
InChI=1S/C19H40/c1-4-7-9-10-11-12-13-15-18-19(16-6-3)17-14-8-5-2/h19H,4-18H2,1-3H3
> <PUBCHEM_IUPAC_INCHIKEY>
FKDHMZSFJFQVOE-UHFFFAOYSA-N
> <PUBCHEM_XLOGP3_AA>
10.2
> <PUBCHEM_EXACT_MASS>
268.313001276
> <PUBCHEM_MOLECULAR_FORMULA>
C19H40
> <PUBCHEM_MOLECULAR_WEIGHT>
268.5
> <PUBCHEM_OPENEYE_CAN_SMILES>
CCCCCCCCCCC(CCC)CCCCC
> <PUBCHEM_OPENEYE_ISO_SMILES>
CCCCCCCCCCC(CCC)CCCCC
> <PUBCHEM_CACTVS_TPSA>
0
> <PUBCHEM_MONOISOTOPIC_WEIGHT>
268.313001276
> <PUBCHEM_TOTAL_CHARGE>
0
> <PUBCHEM_HEAVY_ATOM_COUNT>
19
> <PUBCHEM_ATOM_DEF_STEREO_COUNT>
0
> <PUBCHEM_ATOM_UDEF_STEREO_COUNT>
1
> <PUBCHEM_BOND_DEF_STEREO_COUNT>
0
> <PUBCHEM_BOND_UDEF_STEREO_COUNT>
0
> <PUBCHEM_ISOTOPIC_ATOM_COUNT>
0
> <PUBCHEM_COMPONENT_COUNT>
1
> <PUBCHEM_CACTVS_TAUTO_COUNT>
-1
> <PUBCHEM_COORDINATE_TYPE>
1
5
255
> <PUBCHEM_BONDANNOTATIONS>
1  4  3
$$$$
