528566
  -OEChem-10302200292D
 65 64  0     1  0  0  0  0  0999 V2000
   11.5263    0.2500    0.0000 Si  0  0  0  0  0  0  0  0  0  0  0  0
    3.7320   -0.2500    0.0000 Si  0  0  0  0  0  0  0  0  0  0  0  0
   10.6603   -0.2500    0.0000 O   0  0  0  0  0  0  0  0  0  0  0  0
    4.5981    0.2500    0.0000 O   0  0  0  0  0  0  0  0  0  0  0  0
    9.7942    1.2500    0.0000 O   0  0  0  0  0  0  0  0  0  0  0  0
    5.4641   -1.2500    0.0000 O   0  0  0  0  0  0  0  0  0  0  0  0
   12.3923    0.7500    0.0000 C   0  0  0  0  0  0  0  0  0  0  0  0
    2.8660   -0.7500    0.0000 C   0  0  0  0  0  0  0  0  0  0  0  0
   13.2583    1.2500    0.0000 C   0  0  0  0  0  0  0  0  0  0  0  0
   11.8923    1.6160    0.0000 C   0  0  0  0  0  0  0  0  0  0  0  0
   12.8923   -0.1160    0.0000 C   0  0  0  0  0  0  0  0  0  0  0  0
    2.0000   -1.2500    0.0000 C   0  0  0  0  0  0  0  0  0  0  0  0
    2.3660    0.1160    0.0000 C   0  0  0  0  0  0  0  0  0  0  0  0
    3.3660   -1.6160    0.0000 C   0  0  0  0  0  0  0  0  0  0  0  0
   11.0263    1.1160    0.0000 C   0  0  0  0  0  0  0  0  0  0  0  0
   12.0263   -0.6160    0.0000 C   0  0  0  0  0  0  0  0  0  0  0  0
    3.2320    0.6160    0.0000 C   0  0  0  0  0  0  0  0  0  0  0  0
    4.2320   -1.1160    0.0000 C   0  0  0  0  0  0  0  0  0  0  0  0
    8.0622    0.2500    0.0000 C   0  0  3  0  0  0  0  0  0  0  0  0
    7.1962   -0.2500    0.0000 C   0  0  0  0  0  0  0  0  0  0  0  0
    8.9282   -0.2500    0.0000 C   0  0  0  0  0  0  0  0  0  0  0  0
    6.3301    0.2500    0.0000 C   0  0  0  0  0  0  0  0  0  0  0  0
    9.7942    0.2500    0.0000 C   0  0  0  0  0  0  0  0  0  0  0  0
    5.4641   -0.2500    0.0000 C   0  0  0  0  0  0  0  0  0  0  0  0
    8.0622    1.2500    0.0000 C   0  0  0  0  0  0  0  0  0  0  0  0
   13.5683    0.7131    0.0000 H   0  0  0  0  0  0  0  0  0  0  0  0
   13.7953    1.5600    0.0000 H   0  0  0  0  0  0  0  0  0  0  0  0
   12.9483    1.7869    0.0000 H   0  0  0  0  0  0  0  0  0  0  0  0
   12.4292    1.9260    0.0000 H   0  0  0  0  0  0  0  0  0  0  0  0
   11.5823    2.1530    0.0000 H   0  0  0  0  0  0  0  0  0  0  0  0
   11.3554    1.3060    0.0000 H   0  0  0  0  0  0  0  0  0  0  0  0
   12.3554   -0.4260    0.0000 H   0  0  0  0  0  0  0  0  0  0  0  0
   13.2023   -0.6530    0.0000 H   0  0  0  0  0  0  0  0  0  0  0  0
   13.4292    0.1940    0.0000 H   0  0  0  0  0  0  0  0  0  0  0  0
    1.6900   -0.7131    0.0000 H   0  0  0  0  0  0  0  0  0  0  0  0
    1.4631   -1.5600    0.0000 H   0  0  0  0  0  0  0  0  0  0  0  0
    2.3100   -1.7869    0.0000 H   0  0  0  0  0  0  0  0  0  0  0  0
    2.9030    0.4260    0.0000 H   0  0  0  0  0  0  0  0  0  0  0  0
    2.0560    0.6530    0.0000 H   0  0  0  0  0  0  0  0  0  0  0  0
    1.8291   -0.1940    0.0000 H   0  0  0  0  0  0  0  0  0  0  0  0
    2.8291   -1.9260    0.0000 H   0  0  0  0  0  0  0  0  0  0  0  0
    3.6760   -2.1530    0.0000 H   0  0  0  0  0  0  0  0  0  0  0  0
    3.9030   -1.3060    0.0000 H   0  0  0  0  0  0  0  0  0  0  0  0
   11.5632    1.4260    0.0000 H   0  0  0  0  0  0  0  0  0  0  0  0
   10.7163    1.6530    0.0000 H   0  0  0  0  0  0  0  0  0  0  0  0
   10.4893    0.8060    0.0000 H   0  0  0  0  0  0  0  0  0  0  0  0
   11.4893   -0.9260    0.0000 H   0  0  0  0  0  0  0  0  0  0  0  0
   12.3363   -1.1530    0.0000 H   0  0  0  0  0  0  0  0  0  0  0  0
   12.5632   -0.3060    0.0000 H   0  0  0  0  0  0  0  0  0  0  0  0
    3.7690    0.9260    0.0000 H   0  0  0  0  0  0  0  0  0  0  0  0
    2.9220    1.1530    0.0000 H   0  0  0  0  0  0  0  0  0  0  0  0
    2.6951    0.3060    0.0000 H   0  0  0  0  0  0  0  0  0  0  0  0
    3.6951   -1.4260    0.0000 H   0  0  0  0  0  0  0  0  0  0  0  0
    4.5420   -1.6530    0.0000 H   0  0  0  0  0  0  0  0  0  0  0  0
    4.7690   -0.8060    0.0000 H   0  0  0  0  0  0  0  0  0  0  0  0
    7.5252    0.5600    0.0000 H   0  0  0  0  0  0  0  0  0  0  0  0
    6.7976   -0.7249    0.0000 H   0  0  0  0  0  0  0  0  0  0  0  0
    7.5947   -0.7249    0.0000 H   0  0  0  0  0  0  0  0  0  0  0  0
    8.5297   -0.7249    0.0000 H   0  0  0  0  0  0  0  0  0  0  0  0
    9.3267   -0.7249    0.0000 H   0  0  0  0  0  0  0  0  0  0  0  0
    6.7287    0.7249    0.0000 H   0  0  0  0  0  0  0  0  0  0  0  0
    5.9316    0.7249    0.0000 H   0  0  0  0  0  0  0  0  0  0  0  0
    8.6822    1.2500    0.0000 H   0  0  0  0  0  0  0  0  0  0  0  0
    8.0622    1.8700    0.0000 H   0  0  0  0  0  0  0  0  0  0  0  0
    7.4422    1.2500    0.0000 H   0  0  0  0  0  0  0  0  0  0  0  0
  1  3  1  0  0  0  0
  1  7  1  0  0  0  0
  1 15  1  0  0  0  0
  1 16  1  0  0  0  0
  2  4  1  0  0  0  0
  2  8  1  0  0  0  0
  2 17  1  0  0  0  0
  2 18  1  0  0  0  0
  3 23  1  0  0  0  0
  4 24  1  0  0  0  0
  5 23  2  0  0  0  0
  6 24  2  0  0  0  0
  7  9  1  0  0  0  0
  7 10  1  0  0  0  0
  7 11  1  0  0  0  0
  8 12  1  0  0  0  0
  8 13  1  0  0  0  0
  8 14  1  0  0  0  0
  9 26  1  0  0  0  0
  9 27  1  0  0  0  0
  9 28  1  0  0  0  0
 10 29  1  0  0  0  0
 10 30  1  0  0  0  0
 10 31  1  0  0  0  0
 11 32  1  0  0  0  0
 11 33  1  0  0  0  0
 11 34  1  0  0  0  0
 12 35  1  0  0  0  0
 12 36  1  0  0  0  0
 12 37  1  0  0  0  0
 13 38  1  0  0  0  0
 13 39  1  0  0  0  0
 13 40  1  0  0  0  0
 14 41  1  0  0  0  0
 14 42  1  0  0  0  0
 14 43  1  0  0  0  0
 15 44  1  0  0  0  0
 15 45  1  0  0  0  0
 15 46  1  0  0  0  0
 16 47  1  0  0  0  0
 16 48  1  0  0  0  0
 16 49  1  0  0  0  0
 17 50  1  0  0  0  0
 17 51  1  0  0  0  0
 17 52  1  0  0  0  0
 18 53  1  0  0  0  0
 18 54  1  0  0  0  0
 18 55  1  0  0  0  0
 19 20  1  0  0  0  0
 19 21  1  0  0  0  0
 19 25  1  0  0  0  0
 19 56  1  0  0  0  0
 20 22  1  0  0  0  0
 20 57  1  0  0  0  0
 20 58  1  0  0  0  0
 21 23  1  0  0  0  0
 21 59  1  0  0  0  0
 21 60  1  0  0  0  0
 22 24  1  0  0  0  0
 22 61  1  0  0  0  0
 22 62  1  0  0  0  0
 25 63  1  0  0  0  0
 25 64  1  0  0  0  0
 25 65  1  0  0  0  0
M  END
> <PUBCHEM_COMPOUND_CID>
528566
> <PUBCHEM_COMPOUND_CANONICALIZED>
1
> <PUBCHEM_CACTVS_COMPLEXITY>
471
> <PUBCHEM_CACTVS_HBOND_ACCEPTOR>
4
> <PUBCHEM_CACTVS_HBOND_DONOR>
0
> <PUBCHEM_CACTVS_ROTATABLE_BOND>
11
> <PUBCHEM_CACTVS_SUBSKEYS>
AAADcfB4OAwAAAAAAAAAAAAAAAAAAAAAAAAAAAAAAAAAAAAAAAAAGhAAAEAADQCAoABCCAAAAAEIAACQCAAAAAAAAAAAAAEAAAAAABIAAAAAAAAEAAAAAAGISAAOAAAAAAAAAAAAAAAAAAAAAAAAAAAAAA==
> <PUBCHEM_IUPAC_OPENEYE_NAME>
bis[tert-butyl(dimethyl)silyl] 3-methylhexanedioate
> <PUBCHEM_IUPAC_CAS_NAME>
3-methylhexanedioic acid bis[tert-butyl(dimethyl)silyl] ester
> <PUBCHEM_IUPAC_NAME_MARKUP>
bis[<I>tert</I>-butyl(dimethyl)silyl] 3-methylhexanedioate
> <PUBCHEM_IUPAC_NAME>
bis[tert-butyl(dimethyl)silyl] 3-methylhexanedioate
> <PUBCHEM_IUPAC_SYSTEMATIC_NAME>
bis[tert-butyl(dimethyl)silyl] 3-methylhexanedioate
> <PUBCHEM_IUPAC_TRADITIONAL_NAME>
3-methyladipic acid bis[tert-butyl(dimethyl)silyl] ester
> <PUBCHEM_IUPAC_INCHI>
InChI=1S/C19H40O4Si2/c1-15(14-17(21)23-25(10,11)19(5,6)7)12-13-16(20)22-24(8,9)18(2,3)4/h15H,12-14H2,1-11H3
> <PUBCHEM_IUPAC_INCHIKEY>
OODFVLTWVRCTLQ-UHFFFAOYSA-N
> <PUBCHEM_EXACT_MASS>
388.24651282
> <PUBCHEM_MOLECULAR_FORMULA>
C19H40O4Si2
> <PUBCHEM_MOLECULAR_WEIGHT>
388.7
> <PUBCHEM_OPENEYE_CAN_SMILES>
CC(CCC(=O)O[Si](C)(C)C(C)(C)C)CC(=O)O[Si](C)(C)C(C)(C)C
> <PUBCHEM_OPENEYE_ISO_SMILES>
CC(CCC(=O)O[Si](C)(C)C(C)(C)C)CC(=O)O[Si](C)(C)C(C)(C)C
> <PUBCHEM_CACTVS_TPSA>
52.6
> <PUBCHEM_MONOISOTOPIC_WEIGHT>
388.24651282
> <PUBCHEM_TOTAL_CHARGE>
0
> <PUBCHEM_HEAVY_ATOM_COUNT>
25
> <PUBCHEM_ATOM_DEF_STEREO_COUNT>
0
> <PUBCHEM_ATOM_UDEF_STEREO_COUNT>
1
> <PUBCHEM_BOND_DEF_STEREO_COUNT>
0
> <PUBCHEM_BOND_UDEF_STEREO_COUNT>
0
> <PUBCHEM_ISOTOPIC_ATOM_COUNT>
0
> <PUBCHEM_COMPONENT_COUNT>
1
> <PUBCHEM_CACTVS_TAUTO_COUNT>
-1
> <PUBCHEM_COORDINATE_TYPE>
1
5
255
> <PUBCHEM_BONDANNOTATIONS>
19  25  3
$$$$
