528536
  -OEChem-10302200292D
 71 70  0     1  0  0  0  0  0999 V2000
    8.0622    2.0000    0.0000 C   0  0  3  0  0  0  0  0  0  0  0  0
    8.9282    2.5000    0.0000 C   0  0  0  0  0  0  0  0  0  0  0  0
    7.1962    2.5000    0.0000 C   0  0  0  0  0  0  0  0  0  0  0  0
    8.0622    1.0000    0.0000 C   0  0  0  0  0  0  0  0  0  0  0  0
    9.7942    2.0000    0.0000 C   0  0  0  0  0  0  0  0  0  0  0  0
    6.3301    2.0000    0.0000 C   0  0  0  0  0  0  0  0  0  0  0  0
    7.1962    0.5000    0.0000 C   0  0  0  0  0  0  0  0  0  0  0  0
   10.6603    2.5000    0.0000 C   0  0  0  0  0  0  0  0  0  0  0  0
    5.4641    2.5000    0.0000 C   0  0  0  0  0  0  0  0  0  0  0  0
    7.1962   -0.5000    0.0000 C   0  0  0  0  0  0  0  0  0  0  0  0
   11.5263    2.0000    0.0000 C   0  0  0  0  0  0  0  0  0  0  0  0
    4.5981    2.0000    0.0000 C   0  0  0  0  0  0  0  0  0  0  0  0
   12.3923    2.5000    0.0000 C   0  0  0  0  0  0  0  0  0  0  0  0
    6.3301   -1.0000    0.0000 C   0  0  0  0  0  0  0  0  0  0  0  0
    3.7320    2.5000    0.0000 C   0  0  0  0  0  0  0  0  0  0  0  0
   13.2583    2.0000    0.0000 C   0  0  0  0  0  0  0  0  0  0  0  0
    6.3301   -2.0000    0.0000 C   0  0  0  0  0  0  0  0  0  0  0  0
   14.1244    2.5000    0.0000 C   0  0  0  0  0  0  0  0  0  0  0  0
    2.8660    2.0000    0.0000 C   0  0  0  0  0  0  0  0  0  0  0  0
   14.9904    2.0000    0.0000 C   0  0  0  0  0  0  0  0  0  0  0  0
    5.4641   -2.5000    0.0000 C   0  0  0  0  0  0  0  0  0  0  0  0
    2.0000    2.5000    0.0000 C   0  0  0  0  0  0  0  0  0  0  0  0
   15.8564    2.5000    0.0000 C   0  0  0  0  0  0  0  0  0  0  0  0
    8.0622    2.6200    0.0000 H   0  0  0  0  0  0  0  0  0  0  0  0
    9.3267    2.9750    0.0000 H   0  0  0  0  0  0  0  0  0  0  0  0
    8.5297    2.9750    0.0000 H   0  0  0  0  0  0  0  0  0  0  0  0
    7.5947    2.9750    0.0000 H   0  0  0  0  0  0  0  0  0  0  0  0
    6.7976    2.9750    0.0000 H   0  0  0  0  0  0  0  0  0  0  0  0
    8.2742    0.4174    0.0000 H   0  0  0  0  0  0  0  0  0  0  0  0
    8.6728    1.1077    0.0000 H   0  0  0  0  0  0  0  0  0  0  0  0
    9.3957    1.5250    0.0000 H   0  0  0  0  0  0  0  0  0  0  0  0
   10.1928    1.5250    0.0000 H   0  0  0  0  0  0  0  0  0  0  0  0
    5.9316    1.5250    0.0000 H   0  0  0  0  0  0  0  0  0  0  0  0
    6.7287    1.5250    0.0000 H   0  0  0  0  0  0  0  0  0  0  0  0
    6.9841    1.0826    0.0000 H   0  0  0  0  0  0  0  0  0  0  0  0
    6.5856    0.3923    0.0000 H   0  0  0  0  0  0  0  0  0  0  0  0
   11.0588    2.9750    0.0000 H   0  0  0  0  0  0  0  0  0  0  0  0
   10.2617    2.9750    0.0000 H   0  0  0  0  0  0  0  0  0  0  0  0
    5.8626    2.9750    0.0000 H   0  0  0  0  0  0  0  0  0  0  0  0
    5.0656    2.9750    0.0000 H   0  0  0  0  0  0  0  0  0  0  0  0
    7.4082   -1.0826    0.0000 H   0  0  0  0  0  0  0  0  0  0  0  0
    7.8067   -0.3923    0.0000 H   0  0  0  0  0  0  0  0  0  0  0  0
   11.1278    1.5250    0.0000 H   0  0  0  0  0  0  0  0  0  0  0  0
   11.9248    1.5250    0.0000 H   0  0  0  0  0  0  0  0  0  0  0  0
    4.1996    1.5250    0.0000 H   0  0  0  0  0  0  0  0  0  0  0  0
    4.9966    1.5250    0.0000 H   0  0  0  0  0  0  0  0  0  0  0  0
   12.7908    2.9750    0.0000 H   0  0  0  0  0  0  0  0  0  0  0  0
   11.9938    2.9750    0.0000 H   0  0  0  0  0  0  0  0  0  0  0  0
    6.1181   -0.4174    0.0000 H   0  0  0  0  0  0  0  0  0  0  0  0
    5.7196   -1.1077    0.0000 H   0  0  0  0  0  0  0  0  0  0  0  0
    4.1306    2.9750    0.0000 H   0  0  0  0  0  0  0  0  0  0  0  0
    3.3335    2.9750    0.0000 H   0  0  0  0  0  0  0  0  0  0  0  0
   12.8598    1.5250    0.0000 H   0  0  0  0  0  0  0  0  0  0  0  0
   13.6569    1.5250    0.0000 H   0  0  0  0  0  0  0  0  0  0  0  0
    6.5422   -2.5826    0.0000 H   0  0  0  0  0  0  0  0  0  0  0  0
    6.9407   -1.8923    0.0000 H   0  0  0  0  0  0  0  0  0  0  0  0
   14.5229    2.9750    0.0000 H   0  0  0  0  0  0  0  0  0  0  0  0
   13.7258    2.9750    0.0000 H   0  0  0  0  0  0  0  0  0  0  0  0
    2.4675    1.5250    0.0000 H   0  0  0  0  0  0  0  0  0  0  0  0
    3.2646    1.5250    0.0000 H   0  0  0  0  0  0  0  0  0  0  0  0
   14.5919    1.5250    0.0000 H   0  0  0  0  0  0  0  0  0  0  0  0
   15.3889    1.5250    0.0000 H   0  0  0  0  0  0  0  0  0  0  0  0
    5.1541   -1.9631    0.0000 H   0  0  0  0  0  0  0  0  0  0  0  0
    4.9272   -2.8100    0.0000 H   0  0  0  0  0  0  0  0  0  0  0  0
    5.7741   -3.0369    0.0000 H   0  0  0  0  0  0  0  0  0  0  0  0
    2.3100    3.0369    0.0000 H   0  0  0  0  0  0  0  0  0  0  0  0
    1.4631    2.8100    0.0000 H   0  0  0  0  0  0  0  0  0  0  0  0
    1.6900    1.9631    0.0000 H   0  0  0  0  0  0  0  0  0  0  0  0
   16.1664    1.9631    0.0000 H   0  0  0  0  0  0  0  0  0  0  0  0
   16.3933    2.8100    0.0000 H   0  0  0  0  0  0  0  0  0  0  0  0
   15.5464    3.0369    0.0000 H   0  0  0  0  0  0  0  0  0  0  0  0
  1  2  1  0  0  0  0
  1  3  1  0  0  0  0
  1  4  1  0  0  0  0
  1 24  1  0  0  0  0
  2  5  1  0  0  0  0
  2 25  1  0  0  0  0
  2 26  1  0  0  0  0
  3  6  1  0  0  0  0
  3 27  1  0  0  0  0
  3 28  1  0  0  0  0
  4  7  1  0  0  0  0
  4 29  1  0  0  0  0
  4 30  1  0  0  0  0
  5  8  1  0  0  0  0
  5 31  1  0  0  0  0
  5 32  1  0  0  0  0
  6  9  1  0  0  0  0
  6 33  1  0  0  0  0
  6 34  1  0  0  0  0
  7 10  1  0  0  0  0
  7 35  1  0  0  0  0
  7 36  1  0  0  0  0
  8 11  1  0  0  0  0
  8 37  1  0  0  0  0
  8 38  1  0  0  0  0
  9 12  1  0  0  0  0
  9 39  1  0  0  0  0
  9 40  1  0  0  0  0
 10 14  1  0  0  0  0
 10 41  1  0  0  0  0
 10 42  1  0  0  0  0
 11 13  1  0  0  0  0
 11 43  1  0  0  0  0
 11 44  1  0  0  0  0
 12 15  1  0  0  0  0
 12 45  1  0  0  0  0
 12 46  1  0  0  0  0
 13 16  1  0  0  0  0
 13 47  1  0  0  0  0
 13 48  1  0  0  0  0
 14 17  1  0  0  0  0
 14 49  1  0  0  0  0
 14 50  1  0  0  0  0
 15 19  1  0  0  0  0
 15 51  1  0  0  0  0
 15 52  1  0  0  0  0
 16 18  1  0  0  0  0
 16 53  1  0  0  0  0
 16 54  1  0  0  0  0
 17 21  1  0  0  0  0
 17 55  1  0  0  0  0
 17 56  1  0  0  0  0
 18 20  1  0  0  0  0
 18 57  1  0  0  0  0
 18 58  1  0  0  0  0
 19 22  1  0  0  0  0
 19 59  1  0  0  0  0
 19 60  1  0  0  0  0
 20 23  1  0  0  0  0
 20 61  1  0  0  0  0
 20 62  1  0  0  0  0
 21 63  1  0  0  0  0
 21 64  1  0  0  0  0
 21 65  1  0  0  0  0
 22 66  1  0  0  0  0
 22 67  1  0  0  0  0
 22 68  1  0  0  0  0
 23 69  1  0  0  0  0
 23 70  1  0  0  0  0
 23 71  1  0  0  0  0
M  END
> <PUBCHEM_COMPOUND_CID>
528536
> <PUBCHEM_COMPOUND_CANONICALIZED>
1
> <PUBCHEM_CACTVS_COMPLEXITY>
196
> <PUBCHEM_CACTVS_HBOND_ACCEPTOR>
0
> <PUBCHEM_CACTVS_HBOND_DONOR>
0
> <PUBCHEM_CACTVS_ROTATABLE_BOND>
19
> <PUBCHEM_CACTVS_SUBSKEYS>
AAADcfB4AAAAAAAAAAAAAAAAAAAAAAAAAAAAAAAAAAAAAAAAAAAAGAAAAAAADQCAAAACAAAAAAAAAAAAAAAAAAAAAAAAAAAAAAAAAAIAAAAAAAAAAAAAAAEAgMAOAAAAAAAAAAAAAAAAAAAAAAAAAAAAAA==
> <PUBCHEM_IUPAC_OPENEYE_NAME>
8-hexylheptadecane
> <PUBCHEM_IUPAC_CAS_NAME>
8-hexylheptadecane
> <PUBCHEM_IUPAC_NAME_MARKUP>
8-hexylheptadecane
> <PUBCHEM_IUPAC_NAME>
8-hexylheptadecane
> <PUBCHEM_IUPAC_SYSTEMATIC_NAME>
8-hexylheptadecane
> <PUBCHEM_IUPAC_TRADITIONAL_NAME>
8-hexylheptadecane
> <PUBCHEM_IUPAC_INCHI>
InChI=1S/C23H48/c1-4-7-10-13-14-16-19-22-23(20-17-12-9-6-3)21-18-15-11-8-5-2/h23H,4-22H2,1-3H3
> <PUBCHEM_IUPAC_INCHIKEY>
LFWZFVNWSLRZCT-UHFFFAOYSA-N
> <PUBCHEM_XLOGP3_AA>
12.4
> <PUBCHEM_EXACT_MASS>
324.375601531
> <PUBCHEM_MOLECULAR_FORMULA>
C23H48
> <PUBCHEM_MOLECULAR_WEIGHT>
324.6
> <PUBCHEM_OPENEYE_CAN_SMILES>
CCCCCCCCCC(CCCCCC)CCCCCCC
> <PUBCHEM_OPENEYE_ISO_SMILES>
CCCCCCCCCC(CCCCCC)CCCCCCC
> <PUBCHEM_CACTVS_TPSA>
0
> <PUBCHEM_MONOISOTOPIC_WEIGHT>
324.375601531
> <PUBCHEM_TOTAL_CHARGE>
0
> <PUBCHEM_HEAVY_ATOM_COUNT>
23
> <PUBCHEM_ATOM_DEF_STEREO_COUNT>
0
> <PUBCHEM_ATOM_UDEF_STEREO_COUNT>
1
> <PUBCHEM_BOND_DEF_STEREO_COUNT>
0
> <PUBCHEM_BOND_UDEF_STEREO_COUNT>
0
> <PUBCHEM_ISOTOPIC_ATOM_COUNT>
0
> <PUBCHEM_COMPONENT_COUNT>
1
> <PUBCHEM_CACTVS_TAUTO_COUNT>
-1
> <PUBCHEM_COORDINATE_TYPE>
1
5
255
> <PUBCHEM_BONDANNOTATIONS>
1  4  3
$$$$
