528649
  -OEChem-10302200292D
 57 56  0     1  0  0  0  0  0999 V2000
    8.0622    2.0670    0.0000 Si  0  0  0  0  0  0  0  0  0  0  0  0
    2.8660    2.0670    0.0000 Si  0  0  0  0  0  0  0  0  0  0  0  0
    4.5981   -1.9330    0.0000 Si  0  0  0  0  0  0  0  0  0  0  0  0
    7.1962    2.5670    0.0000 O   0  0  0  0  0  0  0  0  0  0  0  0
    3.7320    2.5670    0.0000 O   0  0  0  0  0  0  0  0  0  0  0  0
    4.5981   -0.9330    0.0000 O   0  0  0  0  0  0  0  0  0  0  0  0
    4.5981    1.0670    0.0000 O   0  0  0  0  0  0  0  0  0  0  0  0
    6.3301   -0.9330    0.0000 O   0  0  0  0  0  0  0  0  0  0  0  0
    6.3301    2.0670    0.0000 C   0  0  3  0  0  0  0  0  0  0  0  0
    6.3301    1.0670    0.0000 C   0  0  0  0  0  0  0  0  0  0  0  0
    5.4641    2.5670    0.0000 C   0  0  0  0  0  0  0  0  0  0  0  0
    5.4641    0.5670    0.0000 C   0  0  0  0  0  0  0  0  0  0  0  0
    8.9282    1.5670    0.0000 C   0  0  0  0  0  0  0  0  0  0  0  0
    8.5622    2.9330    0.0000 C   0  0  0  0  0  0  0  0  0  0  0  0
    7.5622    1.2010    0.0000 C   0  0  0  0  0  0  0  0  0  0  0  0
    4.5981    2.0670    0.0000 C   0  0  0  0  0  0  0  0  0  0  0  0
    5.4641   -0.4330    0.0000 C   0  0  0  0  0  0  0  0  0  0  0  0
    2.0000    1.5670    0.0000 C   0  0  0  0  0  0  0  0  0  0  0  0
    2.3660    2.9330    0.0000 C   0  0  0  0  0  0  0  0  0  0  0  0
    3.3660    1.2010    0.0000 C   0  0  0  0  0  0  0  0  0  0  0  0
    4.5981   -2.9330    0.0000 C   0  0  0  0  0  0  0  0  0  0  0  0
    3.5981   -1.9330    0.0000 C   0  0  0  0  0  0  0  0  0  0  0  0
    5.5981   -1.9330    0.0000 C   0  0  0  0  0  0  0  0  0  0  0  0
    6.8671    1.7570    0.0000 H   0  0  0  0  0  0  0  0  0  0  0  0
    6.5422    0.4844    0.0000 H   0  0  0  0  0  0  0  0  0  0  0  0
    6.9407    1.1746    0.0000 H   0  0  0  0  0  0  0  0  0  0  0  0
    5.8626    3.0419    0.0000 H   0  0  0  0  0  0  0  0  0  0  0  0
    5.0656    3.0419    0.0000 H   0  0  0  0  0  0  0  0  0  0  0  0
    5.2520    1.1496    0.0000 H   0  0  0  0  0  0  0  0  0  0  0  0
    4.8535    0.4593    0.0000 H   0  0  0  0  0  0  0  0  0  0  0  0
    8.6182    1.0300    0.0000 H   0  0  0  0  0  0  0  0  0  0  0  0
    9.4651    1.2570    0.0000 H   0  0  0  0  0  0  0  0  0  0  0  0
    9.2382    2.1039    0.0000 H   0  0  0  0  0  0  0  0  0  0  0  0
    9.0991    2.6230    0.0000 H   0  0  0  0  0  0  0  0  0  0  0  0
    8.8722    3.4700    0.0000 H   0  0  0  0  0  0  0  0  0  0  0  0
    8.0252    3.2430    0.0000 H   0  0  0  0  0  0  0  0  0  0  0  0
    7.0252    1.5110    0.0000 H   0  0  0  0  0  0  0  0  0  0  0  0
    7.2522    0.6640    0.0000 H   0  0  0  0  0  0  0  0  0  0  0  0
    8.0991    0.8910    0.0000 H   0  0  0  0  0  0  0  0  0  0  0  0
    1.6900    2.1039    0.0000 H   0  0  0  0  0  0  0  0  0  0  0  0
    1.4631    1.2570    0.0000 H   0  0  0  0  0  0  0  0  0  0  0  0
    2.3100    1.0300    0.0000 H   0  0  0  0  0  0  0  0  0  0  0  0
    2.9030    3.2430    0.0000 H   0  0  0  0  0  0  0  0  0  0  0  0
    2.0560    3.4700    0.0000 H   0  0  0  0  0  0  0  0  0  0  0  0
    1.8291    2.6230    0.0000 H   0  0  0  0  0  0  0  0  0  0  0  0
    2.8291    0.8910    0.0000 H   0  0  0  0  0  0  0  0  0  0  0  0
    3.6760    0.6640    0.0000 H   0  0  0  0  0  0  0  0  0  0  0  0
    3.9030    1.5110    0.0000 H   0  0  0  0  0  0  0  0  0  0  0  0
    3.9781   -2.9330    0.0000 H   0  0  0  0  0  0  0  0  0  0  0  0
    4.5981   -3.5530    0.0000 H   0  0  0  0  0  0  0  0  0  0  0  0
    5.2181   -2.9330    0.0000 H   0  0  0  0  0  0  0  0  0  0  0  0
    3.5981   -1.3130    0.0000 H   0  0  0  0  0  0  0  0  0  0  0  0
    2.9781   -1.9330    0.0000 H   0  0  0  0  0  0  0  0  0  0  0  0
    3.5981   -2.5530    0.0000 H   0  0  0  0  0  0  0  0  0  0  0  0
    5.5981   -2.5530    0.0000 H   0  0  0  0  0  0  0  0  0  0  0  0
    6.2181   -1.9330    0.0000 H   0  0  0  0  0  0  0  0  0  0  0  0
    5.5981   -1.3130    0.0000 H   0  0  0  0  0  0  0  0  0  0  0  0
  1  4  1  0  0  0  0
  1 13  1  0  0  0  0
  1 14  1  0  0  0  0
  1 15  1  0  0  0  0
  2  5  1  0  0  0  0
  2 18  1  0  0  0  0
  2 19  1  0  0  0  0
  2 20  1  0  0  0  0
  3  6  1  0  0  0  0
  3 21  1  0  0  0  0
  3 22  1  0  0  0  0
  3 23  1  0  0  0  0
  4  9  1  0  0  0  0
  5 16  1  0  0  0  0
  6 17  1  0  0  0  0
  7 16  2  0  0  0  0
  8 17  2  0  0  0  0
  9 10  1  0  0  0  0
  9 11  1  0  0  0  0
  9 24  1  0  0  0  0
 10 12  1  0  0  0  0
 10 25  1  0  0  0  0
 10 26  1  0  0  0  0
 11 16  1  0  0  0  0
 11 27  1  0  0  0  0
 11 28  1  0  0  0  0
 12 17  1  0  0  0  0
 12 29  1  0  0  0  0
 12 30  1  0  0  0  0
 13 31  1  0  0  0  0
 13 32  1  0  0  0  0
 13 33  1  0  0  0  0
 14 34  1  0  0  0  0
 14 35  1  0  0  0  0
 14 36  1  0  0  0  0
 15 37  1  0  0  0  0
 15 38  1  0  0  0  0
 15 39  1  0  0  0  0
 18 40  1  0  0  0  0
 18 41  1  0  0  0  0
 18 42  1  0  0  0  0
 19 43  1  0  0  0  0
 19 44  1  0  0  0  0
 19 45  1  0  0  0  0
 20 46  1  0  0  0  0
 20 47  1  0  0  0  0
 20 48  1  0  0  0  0
 21 49  1  0  0  0  0
 21 50  1  0  0  0  0
 21 51  1  0  0  0  0
 22 52  1  0  0  0  0
 22 53  1  0  0  0  0
 22 54  1  0  0  0  0
 23 55  1  0  0  0  0
 23 56  1  0  0  0  0
 23 57  1  0  0  0  0
M  END
> <PUBCHEM_COMPOUND_CID>
528649
> <PUBCHEM_COMPOUND_CANONICALIZED>
1
> <PUBCHEM_CACTVS_COMPLEXITY>
405
> <PUBCHEM_CACTVS_HBOND_ACCEPTOR>
5
> <PUBCHEM_CACTVS_HBOND_DONOR>
0
> <PUBCHEM_CACTVS_ROTATABLE_BOND>
11
> <PUBCHEM_CACTVS_SUBSKEYS>
AAADcfBwOAwAAAAAAAAAAAAAAAAAAAAAAAAAAAAAAAAAAAAAAAAAGhAAAEAACBSggAJCCAAAAAEIAACQCAAAAAAAAAAAAAEAAAAAABYAAAAAAAAFIAAAAAHKSAAAAAAAAAAAAAAAAAAAAAAAAAAAAAAAAA==
> <PUBCHEM_IUPAC_OPENEYE_NAME>
bis(trimethylsilyl) 3-trimethylsilyloxyhexanedioate
> <PUBCHEM_IUPAC_CAS_NAME>
3-trimethylsilyloxyhexanedioic acid bis(trimethylsilyl) ester
> <PUBCHEM_IUPAC_NAME_MARKUP>
bis(trimethylsilyl) 3-trimethylsilyloxyhexanedioate
> <PUBCHEM_IUPAC_NAME>
bis(trimethylsilyl) 3-trimethylsilyloxyhexanedioate
> <PUBCHEM_IUPAC_SYSTEMATIC_NAME>
bis(trimethylsilyl) 3-trimethylsilyloxyhexanedioate
> <PUBCHEM_IUPAC_TRADITIONAL_NAME>
3-trimethylsilyloxyadipic acid bis(trimethylsilyl) ester
> <PUBCHEM_IUPAC_INCHI>
InChI=1S/C15H34O5Si3/c1-21(2,3)18-13(12-15(17)20-23(7,8)9)10-11-14(16)19-22(4,5)6/h13H,10-12H2,1-9H3
> <PUBCHEM_IUPAC_INCHIKEY>
SMEOAZFYCOIGCU-UHFFFAOYSA-N
> <PUBCHEM_EXACT_MASS>
378.17140378
> <PUBCHEM_MOLECULAR_FORMULA>
C15H34O5Si3
> <PUBCHEM_MOLECULAR_WEIGHT>
378.68
> <PUBCHEM_OPENEYE_CAN_SMILES>
C[Si](C)(C)OC(CCC(=O)O[Si](C)(C)C)CC(=O)O[Si](C)(C)C
> <PUBCHEM_OPENEYE_ISO_SMILES>
C[Si](C)(C)OC(CCC(=O)O[Si](C)(C)C)CC(=O)O[Si](C)(C)C
> <PUBCHEM_CACTVS_TPSA>
61.8
> <PUBCHEM_MONOISOTOPIC_WEIGHT>
378.17140378
> <PUBCHEM_TOTAL_CHARGE>
0
> <PUBCHEM_HEAVY_ATOM_COUNT>
23
> <PUBCHEM_ATOM_DEF_STEREO_COUNT>
0
> <PUBCHEM_ATOM_UDEF_STEREO_COUNT>
1
> <PUBCHEM_BOND_DEF_STEREO_COUNT>
0
> <PUBCHEM_BOND_UDEF_STEREO_COUNT>
0
> <PUBCHEM_ISOTOPIC_ATOM_COUNT>
0
> <PUBCHEM_COMPONENT_COUNT>
1
> <PUBCHEM_CACTVS_TAUTO_COUNT>
-1
> <PUBCHEM_COORDINATE_TYPE>
1
5
255
> <PUBCHEM_BONDANNOTATIONS>
9  10  3
$$$$
