528639
  -OEChem-10302200292D
 52 51  0     1  0  0  0  0  0999 V2000
    8.0622    1.3170    0.0000 Si  0  0  0  0  0  0  0  0  0  0  0  0
    5.4641   -1.1830    0.0000 Si  0  0  0  0  0  0  0  0  0  0  0  0
    2.8660    1.3170    0.0000 Si  0  0  0  0  0  0  0  0  0  0  0  0
    7.1962    1.8170    0.0000 O   0  0  0  0  0  0  0  0  0  0  0  0
    5.4641   -0.1830    0.0000 O   0  0  0  0  0  0  0  0  0  0  0  0
    3.7320    1.8170    0.0000 O   0  0  0  0  0  0  0  0  0  0  0  0
    4.5981    0.3170    0.0000 O   0  0  0  0  0  0  0  0  0  0  0  0
    6.3301    1.3170    0.0000 C   0  0  3  0  0  0  0  0  0  0  0  0
    6.3301    0.3170    0.0000 C   0  0  0  0  0  0  0  0  0  0  0  0
    5.4641    1.8170    0.0000 C   0  0  0  0  0  0  0  0  0  0  0  0
    8.9282    0.8170    0.0000 C   0  0  0  0  0  0  0  0  0  0  0  0
    8.5622    2.1830    0.0000 C   0  0  0  0  0  0  0  0  0  0  0  0
    7.5622    0.4510    0.0000 C   0  0  0  0  0  0  0  0  0  0  0  0
    4.5981    1.3170    0.0000 C   0  0  0  0  0  0  0  0  0  0  0  0
    5.4641   -2.1830    0.0000 C   0  0  0  0  0  0  0  0  0  0  0  0
    4.4641   -1.1830    0.0000 C   0  0  0  0  0  0  0  0  0  0  0  0
    6.4641   -1.1830    0.0000 C   0  0  0  0  0  0  0  0  0  0  0  0
    2.0000    0.8170    0.0000 C   0  0  0  0  0  0  0  0  0  0  0  0
    2.3660    2.1830    0.0000 C   0  0  0  0  0  0  0  0  0  0  0  0
    3.3660    0.4510    0.0000 C   0  0  0  0  0  0  0  0  0  0  0  0
    6.8671    1.0070    0.0000 H   0  0  0  0  0  0  0  0  0  0  0  0
    6.5422   -0.2656    0.0000 H   0  0  0  0  0  0  0  0  0  0  0  0
    6.9407    0.4246    0.0000 H   0  0  0  0  0  0  0  0  0  0  0  0
    5.8626    2.2919    0.0000 H   0  0  0  0  0  0  0  0  0  0  0  0
    5.0656    2.2919    0.0000 H   0  0  0  0  0  0  0  0  0  0  0  0
    8.6182    0.2801    0.0000 H   0  0  0  0  0  0  0  0  0  0  0  0
    9.4651    0.5070    0.0000 H   0  0  0  0  0  0  0  0  0  0  0  0
    9.2382    1.3539    0.0000 H   0  0  0  0  0  0  0  0  0  0  0  0
    9.0991    1.8730    0.0000 H   0  0  0  0  0  0  0  0  0  0  0  0
    8.8722    2.7200    0.0000 H   0  0  0  0  0  0  0  0  0  0  0  0
    8.0252    2.4930    0.0000 H   0  0  0  0  0  0  0  0  0  0  0  0
    7.0252    0.7610    0.0000 H   0  0  0  0  0  0  0  0  0  0  0  0
    7.2522   -0.0860    0.0000 H   0  0  0  0  0  0  0  0  0  0  0  0
    8.0991    0.1410    0.0000 H   0  0  0  0  0  0  0  0  0  0  0  0
    4.8441   -2.1830    0.0000 H   0  0  0  0  0  0  0  0  0  0  0  0
    5.4641   -2.8030    0.0000 H   0  0  0  0  0  0  0  0  0  0  0  0
    6.0841   -2.1830    0.0000 H   0  0  0  0  0  0  0  0  0  0  0  0
    4.4641   -0.5630    0.0000 H   0  0  0  0  0  0  0  0  0  0  0  0
    3.8441   -1.1830    0.0000 H   0  0  0  0  0  0  0  0  0  0  0  0
    4.4641   -1.8030    0.0000 H   0  0  0  0  0  0  0  0  0  0  0  0
    6.4641   -1.8030    0.0000 H   0  0  0  0  0  0  0  0  0  0  0  0
    7.0841   -1.1830    0.0000 H   0  0  0  0  0  0  0  0  0  0  0  0
    6.4641   -0.5630    0.0000 H   0  0  0  0  0  0  0  0  0  0  0  0
    1.6900    1.3539    0.0000 H   0  0  0  0  0  0  0  0  0  0  0  0
    1.4631    0.5070    0.0000 H   0  0  0  0  0  0  0  0  0  0  0  0
    2.3100    0.2801    0.0000 H   0  0  0  0  0  0  0  0  0  0  0  0
    2.9030    2.4930    0.0000 H   0  0  0  0  0  0  0  0  0  0  0  0
    2.0560    2.7200    0.0000 H   0  0  0  0  0  0  0  0  0  0  0  0
    1.8291    1.8730    0.0000 H   0  0  0  0  0  0  0  0  0  0  0  0
    2.8291    0.1410    0.0000 H   0  0  0  0  0  0  0  0  0  0  0  0
    3.6760   -0.0860    0.0000 H   0  0  0  0  0  0  0  0  0  0  0  0
    3.9030    0.7610    0.0000 H   0  0  0  0  0  0  0  0  0  0  0  0
  1  4  1  0  0  0  0
  1 11  1  0  0  0  0
  1 12  1  0  0  0  0
  1 13  1  0  0  0  0
  2  5  1  0  0  0  0
  2 15  1  0  0  0  0
  2 16  1  0  0  0  0
  2 17  1  0  0  0  0
  3  6  1  0  0  0  0
  3 18  1  0  0  0  0
  3 19  1  0  0  0  0
  3 20  1  0  0  0  0
  4  8  1  0  0  0  0
  5  9  1  0  0  0  0
  6 14  1  0  0  0  0
  7 14  2  0  0  0  0
  8  9  1  0  0  0  0
  8 10  1  0  0  0  0
  8 21  1  0  0  0  0
  9 22  1  0  0  0  0
  9 23  1  0  0  0  0
 10 14  1  0  0  0  0
 10 24  1  0  0  0  0
 10 25  1  0  0  0  0
 11 26  1  0  0  0  0
 11 27  1  0  0  0  0
 11 28  1  0  0  0  0
 12 29  1  0  0  0  0
 12 30  1  0  0  0  0
 12 31  1  0  0  0  0
 13 32  1  0  0  0  0
 13 33  1  0  0  0  0
 13 34  1  0  0  0  0
 15 35  1  0  0  0  0
 15 36  1  0  0  0  0
 15 37  1  0  0  0  0
 16 38  1  0  0  0  0
 16 39  1  0  0  0  0
 16 40  1  0  0  0  0
 17 41  1  0  0  0  0
 17 42  1  0  0  0  0
 17 43  1  0  0  0  0
 18 44  1  0  0  0  0
 18 45  1  0  0  0  0
 18 46  1  0  0  0  0
 19 47  1  0  0  0  0
 19 48  1  0  0  0  0
 19 49  1  0  0  0  0
 20 50  1  0  0  0  0
 20 51  1  0  0  0  0
 20 52  1  0  0  0  0
M  END
> <PUBCHEM_COMPOUND_CID>
528639
> <PUBCHEM_COMPOUND_CANONICALIZED>
1
> <PUBCHEM_CACTVS_COMPLEXITY>
313
> <PUBCHEM_CACTVS_HBOND_ACCEPTOR>
4
> <PUBCHEM_CACTVS_HBOND_DONOR>
0
> <PUBCHEM_CACTVS_ROTATABLE_BOND>
9
> <PUBCHEM_CACTVS_SUBSKEYS>
AAADcfBwOAwAAAAAAAAAAAAAAAAAAAAAAAAAAAAAAAAAAAAAAAAAGhAAAEAACBSggAJCCAAAAAEIAACQCAAAAAAAAAAAAAEAAAABABQAAAAAAAAFIAAAAABCAAAAAAAAAAAAAAAAAAAAAAAAAAAAAAAAAA==
> <PUBCHEM_IUPAC_OPENEYE_NAME>
trimethylsilyl 3,4-bis(trimethylsilyloxy)butanoate
> <PUBCHEM_IUPAC_CAS_NAME>
3,4-bis(trimethylsilyloxy)butanoic acid trimethylsilyl ester
> <PUBCHEM_IUPAC_NAME_MARKUP>
trimethylsilyl 3,4-bis(trimethylsilyloxy)butanoate
> <PUBCHEM_IUPAC_NAME>
trimethylsilyl 3,4-bis(trimethylsilyloxy)butanoate
> <PUBCHEM_IUPAC_SYSTEMATIC_NAME>
trimethylsilyl 3,4-bis(trimethylsilyloxy)butanoate
> <PUBCHEM_IUPAC_TRADITIONAL_NAME>
3,4-bis(trimethylsilyloxy)butyric acid trimethylsilyl ester
> <PUBCHEM_IUPAC_INCHI>
InChI=1S/C13H32O4Si3/c1-18(2,3)15-11-12(16-19(4,5)6)10-13(14)17-20(7,8)9/h12H,10-11H2,1-9H3
> <PUBCHEM_IUPAC_INCHIKEY>
OQDJJXAACZVZRO-UHFFFAOYSA-N
> <PUBCHEM_EXACT_MASS>
336.16083910
> <PUBCHEM_MOLECULAR_FORMULA>
C13H32O4Si3
> <PUBCHEM_MOLECULAR_WEIGHT>
336.65
> <PUBCHEM_OPENEYE_CAN_SMILES>
C[Si](C)(C)OCC(CC(=O)O[Si](C)(C)C)O[Si](C)(C)C
> <PUBCHEM_OPENEYE_ISO_SMILES>
C[Si](C)(C)OCC(CC(=O)O[Si](C)(C)C)O[Si](C)(C)C
> <PUBCHEM_CACTVS_TPSA>
44.8
> <PUBCHEM_MONOISOTOPIC_WEIGHT>
336.16083910
> <PUBCHEM_TOTAL_CHARGE>
0
> <PUBCHEM_HEAVY_ATOM_COUNT>
20
> <PUBCHEM_ATOM_DEF_STEREO_COUNT>
0
> <PUBCHEM_ATOM_UDEF_STEREO_COUNT>
1
> <PUBCHEM_BOND_DEF_STEREO_COUNT>
0
> <PUBCHEM_BOND_UDEF_STEREO_COUNT>
0
> <PUBCHEM_ISOTOPIC_ATOM_COUNT>
0
> <PUBCHEM_COMPONENT_COUNT>
1
> <PUBCHEM_CACTVS_TAUTO_COUNT>
1
> <PUBCHEM_COORDINATE_TYPE>
1
5
255
> <PUBCHEM_BONDANNOTATIONS>
8  10  3
$$$$
