528636
  -OEChem-10302200292D
 45 44  0     1  0  0  0  0  0999 V2000
    8.0622    0.5000    0.0000 Si  0  0  0  0  0  0  0  0  0  0  0  0
    2.8660   -0.5000    0.0000 Si  0  0  0  0  0  0  0  0  0  0  0  0
    7.1962    0.0000    0.0000 O   0  0  0  0  0  0  0  0  0  0  0  0
    3.7320   -0.0000    0.0000 O   0  0  0  0  0  0  0  0  0  0  0  0
    4.5981   -1.5000    0.0000 O   0  0  0  0  0  0  0  0  0  0  0  0
    5.4641    0.0000    0.0000 C   0  0  0  0  0  0  0  0  0  0  0  0
    6.3301    0.5000    0.0000 C   0  0  3  0  0  0  0  0  0  0  0  0
    4.9641    0.8660    0.0000 C   0  0  0  0  0  0  0  0  0  0  0  0
    5.9641   -0.8660    0.0000 C   0  0  0  0  0  0  0  0  0  0  0  0
    4.5981   -0.5000    0.0000 C   0  0  0  0  0  0  0  0  0  0  0  0
    6.3301    1.5000    0.0000 C   0  0  0  0  0  0  0  0  0  0  0  0
    8.9282    1.0000    0.0000 C   0  0  0  0  0  0  0  0  0  0  0  0
    8.5622   -0.3660    0.0000 C   0  0  0  0  0  0  0  0  0  0  0  0
    7.5622    1.3660    0.0000 C   0  0  0  0  0  0  0  0  0  0  0  0
    2.0000   -1.0000    0.0000 C   0  0  0  0  0  0  0  0  0  0  0  0
    2.3660    0.3660    0.0000 C   0  0  0  0  0  0  0  0  0  0  0  0
    3.3660   -1.3660    0.0000 C   0  0  0  0  0  0  0  0  0  0  0  0
    6.8671    0.8100    0.0000 H   0  0  0  0  0  0  0  0  0  0  0  0
    5.5010    1.1760    0.0000 H   0  0  0  0  0  0  0  0  0  0  0  0
    4.6541    1.4030    0.0000 H   0  0  0  0  0  0  0  0  0  0  0  0
    4.4272    0.5560    0.0000 H   0  0  0  0  0  0  0  0  0  0  0  0
    5.4272   -1.1760    0.0000 H   0  0  0  0  0  0  0  0  0  0  0  0
    6.2741   -1.4030    0.0000 H   0  0  0  0  0  0  0  0  0  0  0  0
    6.5010   -0.5560    0.0000 H   0  0  0  0  0  0  0  0  0  0  0  0
    6.9501    1.5000    0.0000 H   0  0  0  0  0  0  0  0  0  0  0  0
    6.3301    2.1200    0.0000 H   0  0  0  0  0  0  0  0  0  0  0  0
    5.7101    1.5000    0.0000 H   0  0  0  0  0  0  0  0  0  0  0  0
    9.2382    0.4631    0.0000 H   0  0  0  0  0  0  0  0  0  0  0  0
    9.4651    1.3100    0.0000 H   0  0  0  0  0  0  0  0  0  0  0  0
    8.6182    1.5369    0.0000 H   0  0  0  0  0  0  0  0  0  0  0  0
    8.0252   -0.6760    0.0000 H   0  0  0  0  0  0  0  0  0  0  0  0
    8.8722   -0.9030    0.0000 H   0  0  0  0  0  0  0  0  0  0  0  0
    9.0991   -0.0560    0.0000 H   0  0  0  0  0  0  0  0  0  0  0  0
    8.0991    1.6760    0.0000 H   0  0  0  0  0  0  0  0  0  0  0  0
    7.2522    1.9030    0.0000 H   0  0  0  0  0  0  0  0  0  0  0  0
    7.0252    1.0560    0.0000 H   0  0  0  0  0  0  0  0  0  0  0  0
    1.6900   -0.4631    0.0000 H   0  0  0  0  0  0  0  0  0  0  0  0
    1.4631   -1.3100    0.0000 H   0  0  0  0  0  0  0  0  0  0  0  0
    2.3100   -1.5369    0.0000 H   0  0  0  0  0  0  0  0  0  0  0  0
    2.9030    0.6760    0.0000 H   0  0  0  0  0  0  0  0  0  0  0  0
    2.0560    0.9030    0.0000 H   0  0  0  0  0  0  0  0  0  0  0  0
    1.8291    0.0560    0.0000 H   0  0  0  0  0  0  0  0  0  0  0  0
    2.8291   -1.6760    0.0000 H   0  0  0  0  0  0  0  0  0  0  0  0
    3.6760   -1.9030    0.0000 H   0  0  0  0  0  0  0  0  0  0  0  0
    3.9030   -1.0560    0.0000 H   0  0  0  0  0  0  0  0  0  0  0  0
  1  3  1  0  0  0  0
  1 12  1  0  0  0  0
  1 13  1  0  0  0  0
  1 14  1  0  0  0  0
  2  4  1  0  0  0  0
  2 15  1  0  0  0  0
  2 16  1  0  0  0  0
  2 17  1  0  0  0  0
  3  7  1  0  0  0  0
  4 10  1  0  0  0  0
  5 10  2  0  0  0  0
  6  7  1  0  0  0  0
  6  8  1  0  0  0  0
  6  9  1  0  0  0  0
  6 10  1  0  0  0  0
  7 11  1  0  0  0  0
  7 18  1  0  0  0  0
  8 19  1  0  0  0  0
  8 20  1  0  0  0  0
  8 21  1  0  0  0  0
  9 22  1  0  0  0  0
  9 23  1  0  0  0  0
  9 24  1  0  0  0  0
 11 25  1  0  0  0  0
 11 26  1  0  0  0  0
 11 27  1  0  0  0  0
 12 28  1  0  0  0  0
 12 29  1  0  0  0  0
 12 30  1  0  0  0  0
 13 31  1  0  0  0  0
 13 32  1  0  0  0  0
 13 33  1  0  0  0  0
 14 34  1  0  0  0  0
 14 35  1  0  0  0  0
 14 36  1  0  0  0  0
 15 37  1  0  0  0  0
 15 38  1  0  0  0  0
 15 39  1  0  0  0  0
 16 40  1  0  0  0  0
 16 41  1  0  0  0  0
 16 42  1  0  0  0  0
 17 43  1  0  0  0  0
 17 44  1  0  0  0  0
 17 45  1  0  0  0  0
M  END
> <PUBCHEM_COMPOUND_CID>
528636
> <PUBCHEM_COMPOUND_CANONICALIZED>
1
> <PUBCHEM_CACTVS_COMPLEXITY>
275
> <PUBCHEM_CACTVS_HBOND_ACCEPTOR>
3
> <PUBCHEM_CACTVS_HBOND_DONOR>
0
> <PUBCHEM_CACTVS_ROTATABLE_BOND>
6
> <PUBCHEM_CACTVS_SUBSKEYS>
AAADceBwMAwAAAAAAAAAAAAAAAAAAAAAAAAAAAAAAAAAAAAAAAAAGhAAAEAADhSggAJCCAAAAAEIAACQCAAAAAAAAAAAAAEAAAAAABQAAAAAAAAFIAAAAAAAAAAJAAAAAAAAAAAAAAAAAAAAAAAAAAAAAA==
> <PUBCHEM_IUPAC_OPENEYE_NAME>
trimethylsilyl 2,2-dimethyl-3-trimethylsilyloxy-butanoate
> <PUBCHEM_IUPAC_CAS_NAME>
2,2-dimethyl-3-trimethylsilyloxybutanoic acid trimethylsilyl ester
> <PUBCHEM_IUPAC_NAME_MARKUP>
trimethylsilyl 2,2-dimethyl-3-trimethylsilyloxybutanoate
> <PUBCHEM_IUPAC_NAME>
trimethylsilyl 2,2-dimethyl-3-trimethylsilyloxybutanoate
> <PUBCHEM_IUPAC_SYSTEMATIC_NAME>
trimethylsilyl 2,2-dimethyl-3-trimethylsilyloxy-butanoate
> <PUBCHEM_IUPAC_TRADITIONAL_NAME>
2,2-dimethyl-3-trimethylsilyloxy-butyric acid trimethylsilyl ester
> <PUBCHEM_IUPAC_INCHI>
InChI=1S/C12H28O3Si2/c1-10(14-16(4,5)6)12(2,3)11(13)15-17(7,8)9/h10H,1-9H3
> <PUBCHEM_IUPAC_INCHIKEY>
DJCIAUQXAPLLSG-UHFFFAOYSA-N
> <PUBCHEM_EXACT_MASS>
276.15769782
> <PUBCHEM_MOLECULAR_FORMULA>
C12H28O3Si2
> <PUBCHEM_MOLECULAR_WEIGHT>
276.52
> <PUBCHEM_OPENEYE_CAN_SMILES>
CC(C(C)(C)C(=O)O[Si](C)(C)C)O[Si](C)(C)C
> <PUBCHEM_OPENEYE_ISO_SMILES>
CC(C(C)(C)C(=O)O[Si](C)(C)C)O[Si](C)(C)C
> <PUBCHEM_CACTVS_TPSA>
35.5
> <PUBCHEM_MONOISOTOPIC_WEIGHT>
276.15769782
> <PUBCHEM_TOTAL_CHARGE>
0
> <PUBCHEM_HEAVY_ATOM_COUNT>
17
> <PUBCHEM_ATOM_DEF_STEREO_COUNT>
0
> <PUBCHEM_ATOM_UDEF_STEREO_COUNT>
1
> <PUBCHEM_BOND_DEF_STEREO_COUNT>
0
> <PUBCHEM_BOND_UDEF_STEREO_COUNT>
0
> <PUBCHEM_ISOTOPIC_ATOM_COUNT>
0
> <PUBCHEM_COMPONENT_COUNT>
1
> <PUBCHEM_CACTVS_TAUTO_COUNT>
1
> <PUBCHEM_COORDINATE_TYPE>
1
5
255
> <PUBCHEM_BONDANNOTATIONS>
7  11  3
$$$$
