528648
  -OEChem-10302200292D
 63 62  0     1  0  0  0  0  0999 V2000
    8.0622    2.8170    0.0000 Si  0  0  0  0  0  0  0  0  0  0  0  0
    2.8660    2.8170    0.0000 Si  0  0  0  0  0  0  0  0  0  0  0  0
    3.7320   -2.6830    0.0000 Si  0  0  0  0  0  0  0  0  0  0  0  0
    7.1962    3.3170    0.0000 O   0  0  0  0  0  0  0  0  0  0  0  0
    3.7320    3.3170    0.0000 O   0  0  0  0  0  0  0  0  0  0  0  0
    3.7320   -1.6830    0.0000 O   0  0  0  0  0  0  0  0  0  0  0  0
    4.5981    1.8170    0.0000 O   0  0  0  0  0  0  0  0  0  0  0  0
    5.4641   -1.6830    0.0000 O   0  0  0  0  0  0  0  0  0  0  0  0
    6.3301    2.8170    0.0000 C   0  0  3  0  0  0  0  0  0  0  0  0
    6.3301    1.8170    0.0000 C   0  0  0  0  0  0  0  0  0  0  0  0
    5.4641    1.3170    0.0000 C   0  0  0  0  0  0  0  0  0  0  0  0
    5.4641    3.3170    0.0000 C   0  0  0  0  0  0  0  0  0  0  0  0
    5.4641    0.3170    0.0000 C   0  0  0  0  0  0  0  0  0  0  0  0
    4.5981   -0.1830    0.0000 C   0  0  0  0  0  0  0  0  0  0  0  0
    8.9282    2.3170    0.0000 C   0  0  0  0  0  0  0  0  0  0  0  0
    8.5622    3.6830    0.0000 C   0  0  0  0  0  0  0  0  0  0  0  0
    7.5622    1.9510    0.0000 C   0  0  0  0  0  0  0  0  0  0  0  0
    4.5981    2.8170    0.0000 C   0  0  0  0  0  0  0  0  0  0  0  0
    4.5981   -1.1830    0.0000 C   0  0  0  0  0  0  0  0  0  0  0  0
    2.0000    2.3170    0.0000 C   0  0  0  0  0  0  0  0  0  0  0  0
    2.3660    3.6830    0.0000 C   0  0  0  0  0  0  0  0  0  0  0  0
    3.3660    1.9510    0.0000 C   0  0  0  0  0  0  0  0  0  0  0  0
    3.7320   -3.6830    0.0000 C   0  0  0  0  0  0  0  0  0  0  0  0
    2.7320   -2.6830    0.0000 C   0  0  0  0  0  0  0  0  0  0  0  0
    4.7320   -2.6830    0.0000 C   0  0  0  0  0  0  0  0  0  0  0  0
    6.8671    2.5070    0.0000 H   0  0  0  0  0  0  0  0  0  0  0  0
    6.5422    1.2344    0.0000 H   0  0  0  0  0  0  0  0  0  0  0  0
    6.9407    1.9246    0.0000 H   0  0  0  0  0  0  0  0  0  0  0  0
    5.2520    1.8996    0.0000 H   0  0  0  0  0  0  0  0  0  0  0  0
    4.8535    1.2093    0.0000 H   0  0  0  0  0  0  0  0  0  0  0  0
    5.8626    3.7919    0.0000 H   0  0  0  0  0  0  0  0  0  0  0  0
    5.0656    3.7919    0.0000 H   0  0  0  0  0  0  0  0  0  0  0  0
    5.6762   -0.2656    0.0000 H   0  0  0  0  0  0  0  0  0  0  0  0
    6.0747    0.4246    0.0000 H   0  0  0  0  0  0  0  0  0  0  0  0
    4.3860    0.3996    0.0000 H   0  0  0  0  0  0  0  0  0  0  0  0
    3.9875   -0.2907    0.0000 H   0  0  0  0  0  0  0  0  0  0  0  0
    8.6182    1.7800    0.0000 H   0  0  0  0  0  0  0  0  0  0  0  0
    9.4651    2.0070    0.0000 H   0  0  0  0  0  0  0  0  0  0  0  0
    9.2382    2.8539    0.0000 H   0  0  0  0  0  0  0  0  0  0  0  0
    9.0991    3.3730    0.0000 H   0  0  0  0  0  0  0  0  0  0  0  0
    8.8722    4.2200    0.0000 H   0  0  0  0  0  0  0  0  0  0  0  0
    8.0252    3.9930    0.0000 H   0  0  0  0  0  0  0  0  0  0  0  0
    7.0252    2.2610    0.0000 H   0  0  0  0  0  0  0  0  0  0  0  0
    7.2522    1.4140    0.0000 H   0  0  0  0  0  0  0  0  0  0  0  0
    8.0991    1.6410    0.0000 H   0  0  0  0  0  0  0  0  0  0  0  0
    1.6900    2.8539    0.0000 H   0  0  0  0  0  0  0  0  0  0  0  0
    1.4631    2.0070    0.0000 H   0  0  0  0  0  0  0  0  0  0  0  0
    2.3100    1.7800    0.0000 H   0  0  0  0  0  0  0  0  0  0  0  0
    2.9030    3.9930    0.0000 H   0  0  0  0  0  0  0  0  0  0  0  0
    2.0560    4.2200    0.0000 H   0  0  0  0  0  0  0  0  0  0  0  0
    1.8291    3.3730    0.0000 H   0  0  0  0  0  0  0  0  0  0  0  0
    2.8291    1.6410    0.0000 H   0  0  0  0  0  0  0  0  0  0  0  0
    3.6760    1.4140    0.0000 H   0  0  0  0  0  0  0  0  0  0  0  0
    3.9030    2.2610    0.0000 H   0  0  0  0  0  0  0  0  0  0  0  0
    3.1120   -3.6830    0.0000 H   0  0  0  0  0  0  0  0  0  0  0  0
    3.7320   -4.3030    0.0000 H   0  0  0  0  0  0  0  0  0  0  0  0
    4.3520   -3.6830    0.0000 H   0  0  0  0  0  0  0  0  0  0  0  0
    2.7320   -2.0630    0.0000 H   0  0  0  0  0  0  0  0  0  0  0  0
    2.1120   -2.6830    0.0000 H   0  0  0  0  0  0  0  0  0  0  0  0
    2.7320   -3.3030    0.0000 H   0  0  0  0  0  0  0  0  0  0  0  0
    4.7320   -3.3030    0.0000 H   0  0  0  0  0  0  0  0  0  0  0  0
    5.3520   -2.6830    0.0000 H   0  0  0  0  0  0  0  0  0  0  0  0
    4.7320   -2.0630    0.0000 H   0  0  0  0  0  0  0  0  0  0  0  0
  1  4  1  0  0  0  0
  1 15  1  0  0  0  0
  1 16  1  0  0  0  0
  1 17  1  0  0  0  0
  2  5  1  0  0  0  0
  2 20  1  0  0  0  0
  2 21  1  0  0  0  0
  2 22  1  0  0  0  0
  3  6  1  0  0  0  0
  3 23  1  0  0  0  0
  3 24  1  0  0  0  0
  3 25  1  0  0  0  0
  4  9  1  0  0  0  0
  5 18  1  0  0  0  0
  6 19  1  0  0  0  0
  7 18  2  0  0  0  0
  8 19  2  0  0  0  0
  9 10  1  0  0  0  0
  9 12  1  0  0  0  0
  9 26  1  0  0  0  0
 10 11  1  0  0  0  0
 10 27  1  0  0  0  0
 10 28  1  0  0  0  0
 11 13  1  0  0  0  0
 11 29  1  0  0  0  0
 11 30  1  0  0  0  0
 12 18  1  0  0  0  0
 12 31  1  0  0  0  0
 12 32  1  0  0  0  0
 13 14  1  0  0  0  0
 13 33  1  0  0  0  0
 13 34  1  0  0  0  0
 14 19  1  0  0  0  0
 14 35  1  0  0  0  0
 14 36  1  0  0  0  0
 15 37  1  0  0  0  0
 15 38  1  0  0  0  0
 15 39  1  0  0  0  0
 16 40  1  0  0  0  0
 16 41  1  0  0  0  0
 16 42  1  0  0  0  0
 17 43  1  0  0  0  0
 17 44  1  0  0  0  0
 17 45  1  0  0  0  0
 20 46  1  0  0  0  0
 20 47  1  0  0  0  0
 20 48  1  0  0  0  0
 21 49  1  0  0  0  0
 21 50  1  0  0  0  0
 21 51  1  0  0  0  0
 22 52  1  0  0  0  0
 22 53  1  0  0  0  0
 22 54  1  0  0  0  0
 23 55  1  0  0  0  0
 23 56  1  0  0  0  0
 23 57  1  0  0  0  0
 24 58  1  0  0  0  0
 24 59  1  0  0  0  0
 24 60  1  0  0  0  0
 25 61  1  0  0  0  0
 25 62  1  0  0  0  0
 25 63  1  0  0  0  0
M  END
> <PUBCHEM_COMPOUND_CID>
528648
> <PUBCHEM_COMPOUND_CANONICALIZED>
1
> <PUBCHEM_CACTVS_COMPLEXITY>
433
> <PUBCHEM_CACTVS_HBOND_ACCEPTOR>
5
> <PUBCHEM_CACTVS_HBOND_DONOR>
0
> <PUBCHEM_CACTVS_ROTATABLE_BOND>
13
> <PUBCHEM_CACTVS_SUBSKEYS>
AAADcfB4OAwAAAAAAAAAAAAAAAAAAAAAAAAAAAAAAAAAAAAAAAAAGhAAAEAACBSggAJCCAAAAAEIAACQCAAAAAAAAAAAAAEAAAAAABYAAAAAAAAFIAAAAAGIyKCAAAAAAAAAAAAAAAAAAAAAAAAAAAAAAA==
> <PUBCHEM_IUPAC_OPENEYE_NAME>
bis(trimethylsilyl) 3-trimethylsilyloxyoctanedioate
> <PUBCHEM_IUPAC_CAS_NAME>
3-trimethylsilyloxyoctanedioic acid bis(trimethylsilyl) ester
> <PUBCHEM_IUPAC_NAME_MARKUP>
bis(trimethylsilyl) 3-trimethylsilyloxyoctanedioate
> <PUBCHEM_IUPAC_NAME>
bis(trimethylsilyl) 3-trimethylsilyloxyoctanedioate
> <PUBCHEM_IUPAC_SYSTEMATIC_NAME>
bis(trimethylsilyl) 3-trimethylsilyloxyoctanedioate
> <PUBCHEM_IUPAC_TRADITIONAL_NAME>
3-trimethylsilyloxysuberic acid bis(trimethylsilyl) ester
> <PUBCHEM_IUPAC_INCHI>
InChI=1S/C17H38O5Si3/c1-23(2,3)20-15(14-17(19)22-25(7,8)9)12-10-11-13-16(18)21-24(4,5)6/h15H,10-14H2,1-9H3
> <PUBCHEM_IUPAC_INCHIKEY>
GGRHSVIGEVXSML-UHFFFAOYSA-N
> <PUBCHEM_EXACT_MASS>
406.20270391
> <PUBCHEM_MOLECULAR_FORMULA>
C17H38O5Si3
> <PUBCHEM_MOLECULAR_WEIGHT>
406.7
> <PUBCHEM_OPENEYE_CAN_SMILES>
C[Si](C)(C)OC(CCCCC(=O)O[Si](C)(C)C)CC(=O)O[Si](C)(C)C
> <PUBCHEM_OPENEYE_ISO_SMILES>
C[Si](C)(C)OC(CCCCC(=O)O[Si](C)(C)C)CC(=O)O[Si](C)(C)C
> <PUBCHEM_CACTVS_TPSA>
61.8
> <PUBCHEM_MONOISOTOPIC_WEIGHT>
406.20270391
> <PUBCHEM_TOTAL_CHARGE>
0
> <PUBCHEM_HEAVY_ATOM_COUNT>
25
> <PUBCHEM_ATOM_DEF_STEREO_COUNT>
0
> <PUBCHEM_ATOM_UDEF_STEREO_COUNT>
1
> <PUBCHEM_BOND_DEF_STEREO_COUNT>
0
> <PUBCHEM_BOND_UDEF_STEREO_COUNT>
0
> <PUBCHEM_ISOTOPIC_ATOM_COUNT>
0
> <PUBCHEM_COMPONENT_COUNT>
1
> <PUBCHEM_CACTVS_TAUTO_COUNT>
-1
> <PUBCHEM_COORDINATE_TYPE>
1
5
255
> <PUBCHEM_BONDANNOTATIONS>
9  10  3
$$$$
