528659
  -OEChem-10302200292D
 69 68  0     1  0  0  0  0  0999 V2000
    4.5981   -2.5000    0.0000 Si  0  0  0  0  0  0  0  0  0  0  0  0
    8.9282   -1.0000    0.0000 Si  0  0  0  0  0  0  0  0  0  0  0  0
    2.8660   -0.5000    0.0000 Si  0  0  0  0  0  0  0  0  0  0  0  0
    8.0622    2.5000    0.0000 Si  0  0  0  0  0  0  0  0  0  0  0  0
    5.4641   -2.0000    0.0000 O   0  0  0  0  0  0  0  0  0  0  0  0
    8.0622   -0.5000    0.0000 O   0  0  0  0  0  0  0  0  0  0  0  0
    3.7320   -1.0000    0.0000 O   0  0  0  0  0  0  0  0  0  0  0  0
    7.1962    2.0000    0.0000 O   0  0  0  0  0  0  0  0  0  0  0  0
    7.1962   -2.0000    0.0000 O   0  0  0  0  0  0  0  0  0  0  0  0
    4.5981    0.5000    0.0000 O   0  0  0  0  0  0  0  0  0  0  0  0
    8.0622    0.5000    0.0000 O   0  0  0  0  0  0  0  0  0  0  0  0
    6.3301   -0.5000    0.0000 C   0  0  3  0  0  0  0  0  0  0  0  0
    5.4641   -1.0000    0.0000 C   0  0  3  0  0  0  0  0  0  0  0  0
    6.3301    0.5000    0.0000 C   0  0  0  0  0  0  0  0  0  0  0  0
    7.1962   -1.0000    0.0000 C   0  0  0  0  0  0  0  0  0  0  0  0
    4.5981   -0.5000    0.0000 C   0  0  0  0  0  0  0  0  0  0  0  0
    3.7320   -3.0000    0.0000 C   0  0  0  0  0  0  0  0  0  0  0  0
    5.0981   -3.3660    0.0000 C   0  0  0  0  0  0  0  0  0  0  0  0
    4.0981   -1.6340    0.0000 C   0  0  0  0  0  0  0  0  0  0  0  0
    7.1962    1.0000    0.0000 C   0  0  0  0  0  0  0  0  0  0  0  0
    9.7942   -1.5000    0.0000 C   0  0  0  0  0  0  0  0  0  0  0  0
    9.4282   -0.1340    0.0000 C   0  0  0  0  0  0  0  0  0  0  0  0
    8.4282   -1.8660    0.0000 C   0  0  0  0  0  0  0  0  0  0  0  0
    2.0000   -0.0000    0.0000 C   0  0  0  0  0  0  0  0  0  0  0  0
    2.3660   -1.3660    0.0000 C   0  0  0  0  0  0  0  0  0  0  0  0
    3.3660    0.3660    0.0000 C   0  0  0  0  0  0  0  0  0  0  0  0
    8.9282    3.0000    0.0000 C   0  0  0  0  0  0  0  0  0  0  0  0
    7.5622    3.3660    0.0000 C   0  0  0  0  0  0  0  0  0  0  0  0
    8.5622    1.6340    0.0000 C   0  0  0  0  0  0  0  0  0  0  0  0
    6.8671   -0.1900    0.0000 H   0  0  0  0  0  0  0  0  0  0  0  0
    6.0010   -1.3100    0.0000 H   0  0  0  0  0  0  0  0  0  0  0  0
    6.1181    1.0826    0.0000 H   0  0  0  0  0  0  0  0  0  0  0  0
    5.7196    0.3923    0.0000 H   0  0  0  0  0  0  0  0  0  0  0  0
    3.4220   -2.4631    0.0000 H   0  0  0  0  0  0  0  0  0  0  0  0
    3.1951   -3.3100    0.0000 H   0  0  0  0  0  0  0  0  0  0  0  0
    4.0420   -3.5369    0.0000 H   0  0  0  0  0  0  0  0  0  0  0  0
    4.5611   -3.6760    0.0000 H   0  0  0  0  0  0  0  0  0  0  0  0
    5.4081   -3.9030    0.0000 H   0  0  0  0  0  0  0  0  0  0  0  0
    5.6350   -3.0560    0.0000 H   0  0  0  0  0  0  0  0  0  0  0  0
    4.6350   -1.3240    0.0000 H   0  0  0  0  0  0  0  0  0  0  0  0
    3.7881   -1.0970    0.0000 H   0  0  0  0  0  0  0  0  0  0  0  0
    3.5611   -1.9440    0.0000 H   0  0  0  0  0  0  0  0  0  0  0  0
    9.4842   -2.0369    0.0000 H   0  0  0  0  0  0  0  0  0  0  0  0
   10.3312   -1.8100    0.0000 H   0  0  0  0  0  0  0  0  0  0  0  0
   10.1042   -0.9631    0.0000 H   0  0  0  0  0  0  0  0  0  0  0  0
    9.9651   -0.4440    0.0000 H   0  0  0  0  0  0  0  0  0  0  0  0
    9.7382    0.4030    0.0000 H   0  0  0  0  0  0  0  0  0  0  0  0
    8.8913    0.1760    0.0000 H   0  0  0  0  0  0  0  0  0  0  0  0
    7.8913   -1.5560    0.0000 H   0  0  0  0  0  0  0  0  0  0  0  0
    8.1182   -2.4030    0.0000 H   0  0  0  0  0  0  0  0  0  0  0  0
    8.9651   -2.1760    0.0000 H   0  0  0  0  0  0  0  0  0  0  0  0
    2.3100    0.5369    0.0000 H   0  0  0  0  0  0  0  0  0  0  0  0
    1.4631    0.3100    0.0000 H   0  0  0  0  0  0  0  0  0  0  0  0
    1.6900   -0.5369    0.0000 H   0  0  0  0  0  0  0  0  0  0  0  0
    1.8291   -1.0560    0.0000 H   0  0  0  0  0  0  0  0  0  0  0  0
    2.0560   -1.9030    0.0000 H   0  0  0  0  0  0  0  0  0  0  0  0
    2.9030   -1.6760    0.0000 H   0  0  0  0  0  0  0  0  0  0  0  0
    3.9030    0.0560    0.0000 H   0  0  0  0  0  0  0  0  0  0  0  0
    3.6760    0.9030    0.0000 H   0  0  0  0  0  0  0  0  0  0  0  0
    2.8291    0.6760    0.0000 H   0  0  0  0  0  0  0  0  0  0  0  0
    9.2382    2.4631    0.0000 H   0  0  0  0  0  0  0  0  0  0  0  0
    9.4651    3.3100    0.0000 H   0  0  0  0  0  0  0  0  0  0  0  0
    8.6182    3.5369    0.0000 H   0  0  0  0  0  0  0  0  0  0  0  0
    8.0991    3.6760    0.0000 H   0  0  0  0  0  0  0  0  0  0  0  0
    7.2522    3.9030    0.0000 H   0  0  0  0  0  0  0  0  0  0  0  0
    7.0252    3.0560    0.0000 H   0  0  0  0  0  0  0  0  0  0  0  0
    8.0252    1.3240    0.0000 H   0  0  0  0  0  0  0  0  0  0  0  0
    8.8722    1.0970    0.0000 H   0  0  0  0  0  0  0  0  0  0  0  0
    9.0991    1.9440    0.0000 H   0  0  0  0  0  0  0  0  0  0  0  0
  1  5  1  0  0  0  0
  1 17  1  0  0  0  0
  1 18  1  0  0  0  0
  1 19  1  0  0  0  0
  2  6  1  0  0  0  0
  2 21  1  0  0  0  0
  2 22  1  0  0  0  0
  2 23  1  0  0  0  0
  3  7  1  0  0  0  0
  3 24  1  0  0  0  0
  3 25  1  0  0  0  0
  3 26  1  0  0  0  0
  4  8  1  0  0  0  0
  4 27  1  0  0  0  0
  4 28  1  0  0  0  0
  4 29  1  0  0  0  0
  5 13  1  0  0  0  0
  6 15  1  0  0  0  0
  7 16  1  0  0  0  0
  8 20  1  0  0  0  0
  9 15  2  0  0  0  0
 10 16  2  0  0  0  0
 11 20  2  0  0  0  0
 12 13  1  0  0  0  0
 12 14  1  0  0  0  0
 12 15  1  0  0  0  0
 12 30  1  0  0  0  0
 13 16  1  0  0  0  0
 13 31  1  0  0  0  0
 14 20  1  0  0  0  0
 14 32  1  0  0  0  0
 14 33  1  0  0  0  0
 17 34  1  0  0  0  0
 17 35  1  0  0  0  0
 17 36  1  0  0  0  0
 18 37  1  0  0  0  0
 18 38  1  0  0  0  0
 18 39  1  0  0  0  0
 19 40  1  0  0  0  0
 19 41  1  0  0  0  0
 19 42  1  0  0  0  0
 21 43  1  0  0  0  0
 21 44  1  0  0  0  0
 21 45  1  0  0  0  0
 22 46  1  0  0  0  0
 22 47  1  0  0  0  0
 22 48  1  0  0  0  0
 23 49  1  0  0  0  0
 23 50  1  0  0  0  0
 23 51  1  0  0  0  0
 24 52  1  0  0  0  0
 24 53  1  0  0  0  0
 24 54  1  0  0  0  0
 25 55  1  0  0  0  0
 25 56  1  0  0  0  0
 25 57  1  0  0  0  0
 26 58  1  0  0  0  0
 26 59  1  0  0  0  0
 26 60  1  0  0  0  0
 27 61  1  0  0  0  0
 27 62  1  0  0  0  0
 27 63  1  0  0  0  0
 28 64  1  0  0  0  0
 28 65  1  0  0  0  0
 28 66  1  0  0  0  0
 29 67  1  0  0  0  0
 29 68  1  0  0  0  0
 29 69  1  0  0  0  0
M  END
> <PUBCHEM_COMPOUND_CID>
528659
> <PUBCHEM_COMPOUND_CANONICALIZED>
1
> <PUBCHEM_CACTVS_COMPLEXITY>
595
> <PUBCHEM_CACTVS_HBOND_ACCEPTOR>
7
> <PUBCHEM_CACTVS_HBOND_DONOR>
0
> <PUBCHEM_CACTVS_ROTATABLE_BOND>
13
> <PUBCHEM_CACTVS_SUBSKEYS>
AAADcfB4OAwAAAAAAAAAAAAAAAAAAAAAAAAAAAAAAAAAAAAAAAAAGhAAAEAADRSggAJCCAAAAAEIAACQCAIAAAAAAAAAAAFAAAABABYAAAAAAAAFIAAAAADLJgAKAAAAAAAAAAAAAAAAAAAAAAAAAAAAAA==
> <PUBCHEM_IUPAC_OPENEYE_NAME>
tris(trimethylsilyl) 1-trimethylsilyloxypropane-1,2,3-tricarboxylate
> <PUBCHEM_IUPAC_CAS_NAME>
1-trimethylsilyloxypropane-1,2,3-tricarboxylic acid tris(trimethylsilyl) ester
> <PUBCHEM_IUPAC_NAME_MARKUP>
tris(trimethylsilyl) 1-trimethylsilyloxypropane-1,2,3-tricarboxylate
> <PUBCHEM_IUPAC_NAME>
tris(trimethylsilyl) 1-trimethylsilyloxypropane-1,2,3-tricarboxylate
> <PUBCHEM_IUPAC_SYSTEMATIC_NAME>
tris(trimethylsilyl) 1-trimethylsilyloxypropane-1,2,3-tricarboxylate
> <PUBCHEM_IUPAC_TRADITIONAL_NAME>
1-trimethylsilyloxypropane-1,2,3-tricarboxylic acid tris(trimethylsilyl) ester
> <PUBCHEM_IUPAC_INCHI>
InChI=1S/C18H40O7Si4/c1-26(2,3)22-15(19)13-14(17(20)24-28(7,8)9)16(23-27(4,5)6)18(21)25-29(10,11)12/h14,16H,13H2,1-12H3
> <PUBCHEM_IUPAC_INCHIKEY>
QMCRZQSRNUSJRR-UHFFFAOYSA-N
> <PUBCHEM_EXACT_MASS>
480.18510975
> <PUBCHEM_MOLECULAR_FORMULA>
C18H40O7Si4
> <PUBCHEM_MOLECULAR_WEIGHT>
480.8
> <PUBCHEM_OPENEYE_CAN_SMILES>
C[Si](C)(C)OC(C(CC(=O)O[Si](C)(C)C)C(=O)O[Si](C)(C)C)C(=O)O[Si](C)(C)C
> <PUBCHEM_OPENEYE_ISO_SMILES>
C[Si](C)(C)OC(C(CC(=O)O[Si](C)(C)C)C(=O)O[Si](C)(C)C)C(=O)O[Si](C)(C)C
> <PUBCHEM_CACTVS_TPSA>
88.1
> <PUBCHEM_MONOISOTOPIC_WEIGHT>
480.18510975
> <PUBCHEM_TOTAL_CHARGE>
0
> <PUBCHEM_HEAVY_ATOM_COUNT>
29
> <PUBCHEM_ATOM_DEF_STEREO_COUNT>
0
> <PUBCHEM_ATOM_UDEF_STEREO_COUNT>
2
> <PUBCHEM_BOND_DEF_STEREO_COUNT>
0
> <PUBCHEM_BOND_UDEF_STEREO_COUNT>
0
> <PUBCHEM_ISOTOPIC_ATOM_COUNT>
0
> <PUBCHEM_COMPONENT_COUNT>
1
> <PUBCHEM_CACTVS_TAUTO_COUNT>
1
> <PUBCHEM_COORDINATE_TYPE>
1
5
255
> <PUBCHEM_BONDANNOTATIONS>
12  14  3
13  16  3
$$$$
