528665
  -OEChem-10302200292D
 31 31  0     1  0  0  0  0  0999 V2000
    4.6261    1.0864    0.0000 Si  0  0  0  0  0  0  0  0  0  0  0  0
    3.7601    0.5864    0.0000 O   0  0  0  0  0  0  0  0  0  0  0  0
    4.2601   -1.9524    0.0000 O   0  0  0  0  0  0  0  0  0  0  0  0
    5.5202   -0.6924    0.0000 O   0  0  0  0  0  0  0  0  0  0  0  0
    2.9511   -1.0014    0.0000 C   0  0  0  0  0  0  0  0  0  0  0  0
    3.7601   -0.4136    0.0000 C   0  0  3  0  0  0  0  0  0  0  0  0
    3.2601   -1.9524    0.0000 C   0  0  0  0  0  0  0  0  0  0  0  0
    2.0000   -1.3104    0.0000 C   0  0  0  0  0  0  0  0  0  0  0  0
    2.3633   -0.1924    0.0000 C   0  0  0  0  0  0  0  0  0  0  0  0
    4.5691   -1.0014    0.0000 C   0  0  0  0  0  0  0  0  0  0  0  0
    5.4921    1.5864    0.0000 C   0  0  0  0  0  0  0  0  0  0  0  0
    4.1261    1.9524    0.0000 C   0  0  0  0  0  0  0  0  0  0  0  0
    5.1261    0.2204    0.0000 C   0  0  0  0  0  0  0  0  0  0  0  0
    4.3125   -0.1321    0.0000 H   0  0  0  0  0  0  0  0  0  0  0  0
    2.6536   -2.0813    0.0000 H   0  0  0  0  0  0  0  0  0  0  0  0
    3.3249   -2.5690    0.0000 H   0  0  0  0  0  0  0  0  0  0  0  0
    1.8084   -0.7207    0.0000 H   0  0  0  0  0  0  0  0  0  0  0  0
    1.4103   -1.5020    0.0000 H   0  0  0  0  0  0  0  0  0  0  0  0
    2.1916   -1.9000    0.0000 H   0  0  0  0  0  0  0  0  0  0  0  0
    2.8649    0.1721    0.0000 H   0  0  0  0  0  0  0  0  0  0  0  0
    1.9988    0.3092    0.0000 H   0  0  0  0  0  0  0  0  0  0  0  0
    1.8617   -0.5568    0.0000 H   0  0  0  0  0  0  0  0  0  0  0  0
    5.8021    1.0495    0.0000 H   0  0  0  0  0  0  0  0  0  0  0  0
    6.0291    1.8964    0.0000 H   0  0  0  0  0  0  0  0  0  0  0  0
    5.1821    2.1233    0.0000 H   0  0  0  0  0  0  0  0  0  0  0  0
    4.6630    2.2624    0.0000 H   0  0  0  0  0  0  0  0  0  0  0  0
    3.8161    2.4894    0.0000 H   0  0  0  0  0  0  0  0  0  0  0  0
    3.5892    1.6424    0.0000 H   0  0  0  0  0  0  0  0  0  0  0  0
    4.5892   -0.0896    0.0000 H   0  0  0  0  0  0  0  0  0  0  0  0
    5.4361   -0.3166    0.0000 H   0  0  0  0  0  0  0  0  0  0  0  0
    5.6630    0.5304    0.0000 H   0  0  0  0  0  0  0  0  0  0  0  0
  1  2  1  0  0  0  0
  1 11  1  0  0  0  0
  1 12  1  0  0  0  0
  1 13  1  0  0  0  0
  2  6  1  0  0  0  0
  3  7  1  0  0  0  0
  3 10  1  0  0  0  0
  4 10  2  0  0  0  0
  5  6  1  0  0  0  0
  5  7  1  0  0  0  0
  5  8  1  0  0  0  0
  5  9  1  0  0  0  0
  6 10  1  0  0  0  0
  6 14  1  0  0  0  0
  7 15  1  0  0  0  0
  7 16  1  0  0  0  0
  8 17  1  0  0  0  0
  8 18  1  0  0  0  0
  8 19  1  0  0  0  0
  9 20  1  0  0  0  0
  9 21  1  0  0  0  0
  9 22  1  0  0  0  0
 11 23  1  0  0  0  0
 11 24  1  0  0  0  0
 11 25  1  0  0  0  0
 12 26  1  0  0  0  0
 12 27  1  0  0  0  0
 12 28  1  0  0  0  0
 13 29  1  0  0  0  0
 13 30  1  0  0  0  0
 13 31  1  0  0  0  0
M  END
> <PUBCHEM_COMPOUND_CID>
528665
> <PUBCHEM_COMPOUND_CANONICALIZED>
1
> <PUBCHEM_CACTVS_COMPLEXITY>
217
> <PUBCHEM_CACTVS_HBOND_ACCEPTOR>
3
> <PUBCHEM_CACTVS_HBOND_DONOR>
0
> <PUBCHEM_CACTVS_ROTATABLE_BOND>
2
> <PUBCHEM_CACTVS_SUBSKEYS>
AAADceBwMAgAAAAAAAAAAAAAAAAAASAAAAAAAAAAAAAAAAAAAAAAGhAAAEAADhSggAJCCAAABAEIAACQCAIAAAAAAAAAAAFAAAABABAAAAACAAAFAAACAAACAAAJAAAAAAAAAAAAAAAAAAAAAAAAAAAAAA==
> <PUBCHEM_IUPAC_OPENEYE_NAME>
4,4-dimethyl-3-trimethylsilyloxy-tetrahydrofuran-2-one
> <PUBCHEM_IUPAC_CAS_NAME>
4,4-dimethyl-3-trimethylsilyloxy-2-oxolanone
> <PUBCHEM_IUPAC_NAME_MARKUP>
4,4-dimethyl-3-trimethylsilyloxyoxolan-2-one
> <PUBCHEM_IUPAC_NAME>
4,4-dimethyl-3-trimethylsilyloxyoxolan-2-one
> <PUBCHEM_IUPAC_SYSTEMATIC_NAME>
4,4-dimethyl-3-trimethylsilyloxy-oxolan-2-one
> <PUBCHEM_IUPAC_TRADITIONAL_NAME>
4,4-dimethyl-3-trimethylsilyloxy-tetrahydrofuran-2-one
> <PUBCHEM_IUPAC_INCHI>
InChI=1S/C9H18O3Si/c1-9(2)6-11-8(10)7(9)12-13(3,4)5/h7H,6H2,1-5H3
> <PUBCHEM_IUPAC_INCHIKEY>
FHABWLGAZORNTC-UHFFFAOYSA-N
> <PUBCHEM_EXACT_MASS>
202.10252097
> <PUBCHEM_MOLECULAR_FORMULA>
C9H18O3Si
> <PUBCHEM_MOLECULAR_WEIGHT>
202.32
> <PUBCHEM_OPENEYE_CAN_SMILES>
CC1(COC(=O)C1O[Si](C)(C)C)C
> <PUBCHEM_OPENEYE_ISO_SMILES>
CC1(COC(=O)C1O[Si](C)(C)C)C
> <PUBCHEM_CACTVS_TPSA>
35.5
> <PUBCHEM_MONOISOTOPIC_WEIGHT>
202.10252097
> <PUBCHEM_TOTAL_CHARGE>
0
> <PUBCHEM_HEAVY_ATOM_COUNT>
13
> <PUBCHEM_ATOM_DEF_STEREO_COUNT>
0
> <PUBCHEM_ATOM_UDEF_STEREO_COUNT>
1
> <PUBCHEM_BOND_DEF_STEREO_COUNT>
0
> <PUBCHEM_BOND_UDEF_STEREO_COUNT>
0
> <PUBCHEM_ISOTOPIC_ATOM_COUNT>
0
> <PUBCHEM_COMPONENT_COUNT>
1
> <PUBCHEM_CACTVS_TAUTO_COUNT>
2
> <PUBCHEM_COORDINATE_TYPE>
1
5
255
> <PUBCHEM_BONDANNOTATIONS>
6  2  3
$$$$
