528654
  -OEChem-10302200292D
 36 36  0     1  0  0  0  0  0999 V2000
    4.5981    2.0670    0.0000 Si  0  0  0  0  0  0  0  0  0  0  0  0
    3.7320    1.5670    0.0000 O   0  0  0  0  0  0  0  0  0  0  0  0
    4.5981    0.0670    0.0000 O   0  0  0  0  0  0  0  0  0  0  0  0
    2.8660    0.0670    0.0000 C   0  0  3  0  0  0  0  0  0  0  0  0
    2.0000    0.5670    0.0000 C   0  0  0  0  0  0  0  0  0  0  0  0
    2.8660   -0.9330    0.0000 C   0  0  0  0  0  0  0  0  0  0  0  0
    3.7320    0.5670    0.0000 C   0  0  0  0  0  0  0  0  0  0  0  0
    5.4641    2.5670    0.0000 C   0  0  0  0  0  0  0  0  0  0  0  0
    4.0981    2.9330    0.0000 C   0  0  0  0  0  0  0  0  0  0  0  0
    5.0981    1.2010    0.0000 C   0  0  0  0  0  0  0  0  0  0  0  0
    2.0000    1.5670    0.0000 C   0  0  0  0  0  0  0  0  0  0  0  0
    3.7320   -1.4330    0.0000 C   0  0  0  0  0  0  0  0  0  0  0  0
    2.0000   -1.4330    0.0000 C   0  0  0  0  0  0  0  0  0  0  0  0
    3.7320   -2.4330    0.0000 C   0  0  0  0  0  0  0  0  0  0  0  0
    2.0000   -2.4330    0.0000 C   0  0  0  0  0  0  0  0  0  0  0  0
    2.8660   -2.9330    0.0000 C   0  0  0  0  0  0  0  0  0  0  0  0
    2.8660    0.6870    0.0000 H   0  0  0  0  0  0  0  0  0  0  0  0
    1.3894    0.6746    0.0000 H   0  0  0  0  0  0  0  0  0  0  0  0
    1.7880   -0.0156    0.0000 H   0  0  0  0  0  0  0  0  0  0  0  0
    5.7741    2.0300    0.0000 H   0  0  0  0  0  0  0  0  0  0  0  0
    6.0010    2.8770    0.0000 H   0  0  0  0  0  0  0  0  0  0  0  0
    5.1541    3.1039    0.0000 H   0  0  0  0  0  0  0  0  0  0  0  0
    4.6350    3.2430    0.0000 H   0  0  0  0  0  0  0  0  0  0  0  0
    3.7881    3.4700    0.0000 H   0  0  0  0  0  0  0  0  0  0  0  0
    3.5611    2.6230    0.0000 H   0  0  0  0  0  0  0  0  0  0  0  0
    4.5611    0.8910    0.0000 H   0  0  0  0  0  0  0  0  0  0  0  0
    5.4081    0.6640    0.0000 H   0  0  0  0  0  0  0  0  0  0  0  0
    5.6350    1.5110    0.0000 H   0  0  0  0  0  0  0  0  0  0  0  0
    2.6200    1.5670    0.0000 H   0  0  0  0  0  0  0  0  0  0  0  0
    2.0000    2.1870    0.0000 H   0  0  0  0  0  0  0  0  0  0  0  0
    1.3800    1.5670    0.0000 H   0  0  0  0  0  0  0  0  0  0  0  0
    4.2690   -1.1230    0.0000 H   0  0  0  0  0  0  0  0  0  0  0  0
    1.4631   -1.1230    0.0000 H   0  0  0  0  0  0  0  0  0  0  0  0
    4.2690   -2.7430    0.0000 H   0  0  0  0  0  0  0  0  0  0  0  0
    1.4631   -2.7430    0.0000 H   0  0  0  0  0  0  0  0  0  0  0  0
    2.8660   -3.5530    0.0000 H   0  0  0  0  0  0  0  0  0  0  0  0
  1  2  1  0  0  0  0
  1  8  1  0  0  0  0
  1  9  1  0  0  0  0
  1 10  1  0  0  0  0
  2  7  1  0  0  0  0
  3  7  2  0  0  0  0
  4  5  1  0  0  0  0
  4  6  1  0  0  0  0
  4  7  1  0  0  0  0
  4 17  1  0  0  0  0
  5 11  1  0  0  0  0
  5 18  1  0  0  0  0
  5 19  1  0  0  0  0
  6 12  2  0  0  0  0
  6 13  1  0  0  0  0
  8 20  1  0  0  0  0
  8 21  1  0  0  0  0
  8 22  1  0  0  0  0
  9 23  1  0  0  0  0
  9 24  1  0  0  0  0
  9 25  1  0  0  0  0
 10 26  1  0  0  0  0
 10 27  1  0  0  0  0
 10 28  1  0  0  0  0
 11 29  1  0  0  0  0
 11 30  1  0  0  0  0
 11 31  1  0  0  0  0
 12 14  1  0  0  0  0
 12 32  1  0  0  0  0
 13 15  2  0  0  0  0
 13 33  1  0  0  0  0
 14 16  2  0  0  0  0
 14 34  1  0  0  0  0
 15 16  1  0  0  0  0
 15 35  1  0  0  0  0
 16 36  1  0  0  0  0
M  END
> <PUBCHEM_COMPOUND_CID>
528654
> <PUBCHEM_COMPOUND_CANONICALIZED>
1
> <PUBCHEM_CACTVS_COMPLEXITY>
227
> <PUBCHEM_CACTVS_HBOND_ACCEPTOR>
2
> <PUBCHEM_CACTVS_HBOND_DONOR>
0
> <PUBCHEM_CACTVS_ROTATABLE_BOND>
5
> <PUBCHEM_CACTVS_SUBSKEYS>
AAADceBwMAgAAAAAAAAAAAAAAAAAAAAAAAAwAAAAAAAAAAABAAAAGhAAAEAADQCAmAByCIAAAAGIAiDSCAACAAAgAAAIiAEAAIgIIDKAFRCAIAAkwAEIiAeIyOCOgAAAAAAAAAAAAAAAAAAAAAAAAAAAAA==
> <PUBCHEM_IUPAC_OPENEYE_NAME>
trimethylsilyl 2-phenylbutanoate
> <PUBCHEM_IUPAC_CAS_NAME>
2-phenylbutanoic acid trimethylsilyl ester
> <PUBCHEM_IUPAC_NAME_MARKUP>
trimethylsilyl 2-phenylbutanoate
> <PUBCHEM_IUPAC_NAME>
trimethylsilyl 2-phenylbutanoate
> <PUBCHEM_IUPAC_SYSTEMATIC_NAME>
trimethylsilyl 2-phenylbutanoate
> <PUBCHEM_IUPAC_TRADITIONAL_NAME>
2-phenylbutyric acid trimethylsilyl ester
> <PUBCHEM_IUPAC_INCHI>
InChI=1S/C13H20O2Si/c1-5-12(11-9-7-6-8-10-11)13(14)15-16(2,3)4/h6-10,12H,5H2,1-4H3
> <PUBCHEM_IUPAC_INCHIKEY>
VYKUZPWIVBWKQA-UHFFFAOYSA-N
> <PUBCHEM_EXACT_MASS>
236.123256411
> <PUBCHEM_MOLECULAR_FORMULA>
C13H20O2Si
> <PUBCHEM_MOLECULAR_WEIGHT>
236.38
> <PUBCHEM_OPENEYE_CAN_SMILES>
CCC(C1=CC=CC=C1)C(=O)O[Si](C)(C)C
> <PUBCHEM_OPENEYE_ISO_SMILES>
CCC(C1=CC=CC=C1)C(=O)O[Si](C)(C)C
> <PUBCHEM_CACTVS_TPSA>
26.3
> <PUBCHEM_MONOISOTOPIC_WEIGHT>
236.123256411
> <PUBCHEM_TOTAL_CHARGE>
0
> <PUBCHEM_HEAVY_ATOM_COUNT>
16
> <PUBCHEM_ATOM_DEF_STEREO_COUNT>
0
> <PUBCHEM_ATOM_UDEF_STEREO_COUNT>
1
> <PUBCHEM_BOND_DEF_STEREO_COUNT>
0
> <PUBCHEM_BOND_UDEF_STEREO_COUNT>
0
> <PUBCHEM_ISOTOPIC_ATOM_COUNT>
0
> <PUBCHEM_COMPONENT_COUNT>
1
> <PUBCHEM_CACTVS_TAUTO_COUNT>
-1
> <PUBCHEM_COORDINATE_TYPE>
1
5
255
> <PUBCHEM_BONDANNOTATIONS>
12  14  8
13  15  8
14  16  8
15  16  8
4  5  3
6  12  8
6  13  8
$$$$
