528638
  -OEChem-10302200292D
 68 67  0     1  0  0  0  0  0999 V2000
    7.1962    0.4330    0.0000 Si  0  0  0  0  0  0  0  0  0  0  0  0
    2.8660   -0.0670    0.0000 Si  0  0  0  0  0  0  0  0  0  0  0  0
    6.3301    2.9330    0.0000 Si  0  0  0  0  0  0  0  0  0  0  0  0
    6.3301   -3.0670    0.0000 Si  0  0  0  0  0  0  0  0  0  0  0  0
    6.3301   -0.0670    0.0000 O   0  0  0  0  0  0  0  0  0  0  0  0
    3.7320    0.4330    0.0000 O   0  0  0  0  0  0  0  0  0  0  0  0
    6.3301    1.9330    0.0000 O   0  0  0  0  0  0  0  0  0  0  0  0
    5.4641   -2.5670    0.0000 O   0  0  0  0  0  0  0  0  0  0  0  0
    6.3301   -1.0670    0.0000 O   0  0  0  0  0  0  0  0  0  0  0  0
    5.4641    0.4330    0.0000 C   0  0  3  0  0  0  0  0  0  0  0  0
    4.5981   -0.0670    0.0000 C   0  0  3  0  0  0  0  0  0  0  0  0
    5.4641    1.4330    0.0000 C   0  0  0  0  0  0  0  0  0  0  0  0
    4.5981   -1.0670    0.0000 C   0  0  0  0  0  0  0  0  0  0  0  0
    8.0622    0.9330    0.0000 C   0  0  0  0  0  0  0  0  0  0  0  0
    7.6962   -0.4330    0.0000 C   0  0  0  0  0  0  0  0  0  0  0  0
    6.6962    1.2990    0.0000 C   0  0  0  0  0  0  0  0  0  0  0  0
    2.0000   -0.5670    0.0000 C   0  0  0  0  0  0  0  0  0  0  0  0
    2.3660    0.7990    0.0000 C   0  0  0  0  0  0  0  0  0  0  0  0
    3.3660   -0.9330    0.0000 C   0  0  0  0  0  0  0  0  0  0  0  0
    5.4641   -1.5670    0.0000 C   0  0  0  0  0  0  0  0  0  0  0  0
    6.3301    3.9330    0.0000 C   0  0  0  0  0  0  0  0  0  0  0  0
    7.3301    2.9330    0.0000 C   0  0  0  0  0  0  0  0  0  0  0  0
    5.3301    2.9330    0.0000 C   0  0  0  0  0  0  0  0  0  0  0  0
    7.1962   -3.5670    0.0000 C   0  0  0  0  0  0  0  0  0  0  0  0
    5.8301   -3.9330    0.0000 C   0  0  0  0  0  0  0  0  0  0  0  0
    6.8301   -2.2010    0.0000 C   0  0  0  0  0  0  0  0  0  0  0  0
    5.4641   -0.1870    0.0000 H   0  0  0  0  0  0  0  0  0  0  0  0
    4.5981    0.5530    0.0000 H   0  0  0  0  0  0  0  0  0  0  0  0
    5.2520    2.0156    0.0000 H   0  0  0  0  0  0  0  0  0  0  0  0
    4.8535    1.3254    0.0000 H   0  0  0  0  0  0  0  0  0  0  0  0
    3.9875   -0.9593    0.0000 H   0  0  0  0  0  0  0  0  0  0  0  0
    4.3860   -1.6496    0.0000 H   0  0  0  0  0  0  0  0  0  0  0  0
    8.3722    0.3961    0.0000 H   0  0  0  0  0  0  0  0  0  0  0  0
    8.5991    1.2430    0.0000 H   0  0  0  0  0  0  0  0  0  0  0  0
    7.7522    1.4700    0.0000 H   0  0  0  0  0  0  0  0  0  0  0  0
    7.1592   -0.7430    0.0000 H   0  0  0  0  0  0  0  0  0  0  0  0
    8.0062   -0.9699    0.0000 H   0  0  0  0  0  0  0  0  0  0  0  0
    8.2331   -0.1230    0.0000 H   0  0  0  0  0  0  0  0  0  0  0  0
    7.2331    1.6090    0.0000 H   0  0  0  0  0  0  0  0  0  0  0  0
    6.3862    1.8360    0.0000 H   0  0  0  0  0  0  0  0  0  0  0  0
    6.1592    0.9890    0.0000 H   0  0  0  0  0  0  0  0  0  0  0  0
    1.6900   -0.0301    0.0000 H   0  0  0  0  0  0  0  0  0  0  0  0
    1.4631   -0.8770    0.0000 H   0  0  0  0  0  0  0  0  0  0  0  0
    2.3100   -1.1039    0.0000 H   0  0  0  0  0  0  0  0  0  0  0  0
    2.9030    1.1090    0.0000 H   0  0  0  0  0  0  0  0  0  0  0  0
    2.0560    1.3360    0.0000 H   0  0  0  0  0  0  0  0  0  0  0  0
    1.8291    0.4890    0.0000 H   0  0  0  0  0  0  0  0  0  0  0  0
    2.8291   -1.2430    0.0000 H   0  0  0  0  0  0  0  0  0  0  0  0
    3.6760   -1.4700    0.0000 H   0  0  0  0  0  0  0  0  0  0  0  0
    3.9030   -0.6230    0.0000 H   0  0  0  0  0  0  0  0  0  0  0  0
    6.9501    3.9330    0.0000 H   0  0  0  0  0  0  0  0  0  0  0  0
    6.3301    4.5530    0.0000 H   0  0  0  0  0  0  0  0  0  0  0  0
    5.7101    3.9330    0.0000 H   0  0  0  0  0  0  0  0  0  0  0  0
    7.3301    2.3130    0.0000 H   0  0  0  0  0  0  0  0  0  0  0  0
    7.9501    2.9330    0.0000 H   0  0  0  0  0  0  0  0  0  0  0  0
    7.3301    3.5530    0.0000 H   0  0  0  0  0  0  0  0  0  0  0  0
    5.3301    3.5530    0.0000 H   0  0  0  0  0  0  0  0  0  0  0  0
    4.7101    2.9330    0.0000 H   0  0  0  0  0  0  0  0  0  0  0  0
    5.3301    2.3130    0.0000 H   0  0  0  0  0  0  0  0  0  0  0  0
    6.8862   -4.1039    0.0000 H   0  0  0  0  0  0  0  0  0  0  0  0
    7.7331   -3.8770    0.0000 H   0  0  0  0  0  0  0  0  0  0  0  0
    7.5062   -3.0300    0.0000 H   0  0  0  0  0  0  0  0  0  0  0  0
    5.2932   -3.6230    0.0000 H   0  0  0  0  0  0  0  0  0  0  0  0
    5.5201   -4.4700    0.0000 H   0  0  0  0  0  0  0  0  0  0  0  0
    6.3671   -4.2430    0.0000 H   0  0  0  0  0  0  0  0  0  0  0  0
    7.3671   -2.5110    0.0000 H   0  0  0  0  0  0  0  0  0  0  0  0
    7.1401   -1.6640    0.0000 H   0  0  0  0  0  0  0  0  0  0  0  0
    6.2932   -1.8910    0.0000 H   0  0  0  0  0  0  0  0  0  0  0  0
  1  5  1  0  0  0  0
  1 14  1  0  0  0  0
  1 15  1  0  0  0  0
  1 16  1  0  0  0  0
  2  6  1  0  0  0  0
  2 17  1  0  0  0  0
  2 18  1  0  0  0  0
  2 19  1  0  0  0  0
  3  7  1  0  0  0  0
  3 21  1  0  0  0  0
  3 22  1  0  0  0  0
  3 23  1  0  0  0  0
  4  8  1  0  0  0  0
  4 24  1  0  0  0  0
  4 25  1  0  0  0  0
  4 26  1  0  0  0  0
  5 10  1  0  0  0  0
  6 11  1  0  0  0  0
  7 12  1  0  0  0  0
  8 20  1  0  0  0  0
  9 20  2  0  0  0  0
 10 11  1  0  0  0  0
 10 12  1  0  0  0  0
 10 27  1  0  0  0  0
 11 13  1  0  0  0  0
 11 28  1  0  0  0  0
 12 29  1  0  0  0  0
 12 30  1  0  0  0  0
 13 20  1  0  0  0  0
 13 31  1  0  0  0  0
 13 32  1  0  0  0  0
 14 33  1  0  0  0  0
 14 34  1  0  0  0  0
 14 35  1  0  0  0  0
 15 36  1  0  0  0  0
 15 37  1  0  0  0  0
 15 38  1  0  0  0  0
 16 39  1  0  0  0  0
 16 40  1  0  0  0  0
 16 41  1  0  0  0  0
 17 42  1  0  0  0  0
 17 43  1  0  0  0  0
 17 44  1  0  0  0  0
 18 45  1  0  0  0  0
 18 46  1  0  0  0  0
 18 47  1  0  0  0  0
 19 48  1  0  0  0  0
 19 49  1  0  0  0  0
 19 50  1  0  0  0  0
 21 51  1  0  0  0  0
 21 52  1  0  0  0  0
 21 53  1  0  0  0  0
 22 54  1  0  0  0  0
 22 55  1  0  0  0  0
 22 56  1  0  0  0  0
 23 57  1  0  0  0  0
 23 58  1  0  0  0  0
 23 59  1  0  0  0  0
 24 60  1  0  0  0  0
 24 61  1  0  0  0  0
 24 62  1  0  0  0  0
 25 63  1  0  0  0  0
 25 64  1  0  0  0  0
 25 65  1  0  0  0  0
 26 66  1  0  0  0  0
 26 67  1  0  0  0  0
 26 68  1  0  0  0  0
M  END
> <PUBCHEM_COMPOUND_CID>
528638
> <PUBCHEM_COMPOUND_CANONICALIZED>
1
> <PUBCHEM_CACTVS_COMPLEXITY>
444
> <PUBCHEM_CACTVS_HBOND_ACCEPTOR>
5
> <PUBCHEM_CACTVS_HBOND_DONOR>
0
> <PUBCHEM_CACTVS_ROTATABLE_BOND>
12
> <PUBCHEM_CACTVS_SUBSKEYS>
AAADcfB4OAwAAAAAAAAAAAAAAAAAAAAAAAAAAAAAAAAAAAAAAAAAGhAAAEAACBSggAJCCAAAAAEIAACQCAAAAAAAAAAAAAEAAAABABYAAAAAAAAFIAAAAADKJAAAAAAAAAAAAAAAAAAAAAAAAAAAAAAAAA==
> <PUBCHEM_IUPAC_OPENEYE_NAME>
trimethylsilyl 3,4,5-tris(trimethylsilyloxy)pentanoate
> <PUBCHEM_IUPAC_CAS_NAME>
3,4,5-tris(trimethylsilyloxy)pentanoic acid trimethylsilyl ester
> <PUBCHEM_IUPAC_NAME_MARKUP>
trimethylsilyl 3,4,5-tris(trimethylsilyloxy)pentanoate
> <PUBCHEM_IUPAC_NAME>
trimethylsilyl 3,4,5-tris(trimethylsilyloxy)pentanoate
> <PUBCHEM_IUPAC_SYSTEMATIC_NAME>
trimethylsilyl 3,4,5-tris(trimethylsilyloxy)pentanoate
> <PUBCHEM_IUPAC_TRADITIONAL_NAME>
3,4,5-tris(trimethylsilyloxy)valeric acid trimethylsilyl ester
> <PUBCHEM_IUPAC_INCHI>
InChI=1S/C17H42O5Si4/c1-23(2,3)19-14-16(21-25(7,8)9)15(20-24(4,5)6)13-17(18)22-26(10,11)12/h15-16H,13-14H2,1-12H3
> <PUBCHEM_IUPAC_INCHIKEY>
YBBDPOSMYVZLKS-UHFFFAOYSA-N
> <PUBCHEM_EXACT_MASS>
438.21093057
> <PUBCHEM_MOLECULAR_FORMULA>
C17H42O5Si4
> <PUBCHEM_MOLECULAR_WEIGHT>
438.9
> <PUBCHEM_OPENEYE_CAN_SMILES>
C[Si](C)(C)OCC(C(CC(=O)O[Si](C)(C)C)O[Si](C)(C)C)O[Si](C)(C)C
> <PUBCHEM_OPENEYE_ISO_SMILES>
C[Si](C)(C)OCC(C(CC(=O)O[Si](C)(C)C)O[Si](C)(C)C)O[Si](C)(C)C
> <PUBCHEM_CACTVS_TPSA>
54
> <PUBCHEM_MONOISOTOPIC_WEIGHT>
438.21093057
> <PUBCHEM_TOTAL_CHARGE>
0
> <PUBCHEM_HEAVY_ATOM_COUNT>
26
> <PUBCHEM_ATOM_DEF_STEREO_COUNT>
0
> <PUBCHEM_ATOM_UDEF_STEREO_COUNT>
2
> <PUBCHEM_BOND_DEF_STEREO_COUNT>
0
> <PUBCHEM_BOND_UDEF_STEREO_COUNT>
0
> <PUBCHEM_ISOTOPIC_ATOM_COUNT>
0
> <PUBCHEM_COMPONENT_COUNT>
1
> <PUBCHEM_CACTVS_TAUTO_COUNT>
-1
> <PUBCHEM_COORDINATE_TYPE>
1
5
255
> <PUBCHEM_BONDANNOTATIONS>
10  12  3
11  13  3
$$$$
