528737
  -OEChem-10302200292D
 82 83  0     1  0  0  0  0  0999 V2000
    6.3301   -3.0000    0.0000 Si  0  0  0  0  0  0  0  0  0  0  0  0
   11.5263   -3.0000    0.0000 Si  0  0  0  0  0  0  0  0  0  0  0  0
    4.5981    5.0000    0.0000 F   0  0  0  0  0  0  0  0  0  0  0  0
    5.5981    4.0000    0.0000 F   0  0  0  0  0  0  0  0  0  0  0  0
    3.5981    4.0000    0.0000 F   0  0  0  0  0  0  0  0  0  0  0  0
    2.0000    0.5000    0.0000 F   0  0  0  0  0  0  0  0  0  0  0  0
    3.3660    0.1340    0.0000 F   0  0  0  0  0  0  0  0  0  0  0  0
    2.3660    1.8660    0.0000 F   0  0  0  0  0  0  0  0  0  0  0  0
    6.3301   -2.0000    0.0000 O   0  0  0  0  0  0  0  0  0  0  0  0
   10.6603   -3.5000    0.0000 O   0  0  0  0  0  0  0  0  0  0  0  0
    7.1962    1.5000    0.0000 O   0  0  0  0  0  0  0  0  0  0  0  0
    6.3301   -0.0000    0.0000 N   0  0  0  0  0  0  0  0  0  0  0  0
    6.3301   -4.0000    0.0000 C   0  0  0  0  0  0  0  0  0  0  0  0
   12.3923   -2.5000    0.0000 C   0  0  0  0  0  0  0  0  0  0  0  0
    6.3301   -5.0000    0.0000 C   0  0  0  0  0  0  0  0  0  0  0  0
    5.3301   -4.0000    0.0000 C   0  0  0  0  0  0  0  0  0  0  0  0
    7.3301   -4.0000    0.0000 C   0  0  0  0  0  0  0  0  0  0  0  0
    5.3301   -3.0000    0.0000 C   0  0  0  0  0  0  0  0  0  0  0  0
    7.3301   -3.0000    0.0000 C   0  0  0  0  0  0  0  0  0  0  0  0
    7.1962   -1.5000    0.0000 C   0  0  3  0  0  0  0  0  0  0  0  0
   13.2583   -2.0000    0.0000 C   0  0  0  0  0  0  0  0  0  0  0  0
   12.8923   -3.3660    0.0000 C   0  0  0  0  0  0  0  0  0  0  0  0
   11.8923   -1.6340    0.0000 C   0  0  0  0  0  0  0  0  0  0  0  0
   12.0263   -3.8660    0.0000 C   0  0  0  0  0  0  0  0  0  0  0  0
   11.0263   -2.1340    0.0000 C   0  0  0  0  0  0  0  0  0  0  0  0
    8.0622   -2.0000    0.0000 C   0  0  0  0  0  0  0  0  0  0  0  0
    7.1962   -0.5000    0.0000 C   0  0  0  0  0  0  0  0  0  0  0  0
    9.7942   -3.0000    0.0000 C   0  0  0  0  0  0  0  0  0  0  0  0
    8.9282   -1.5000    0.0000 C   0  0  0  0  0  0  0  0  0  0  0  0
    8.0622   -3.0000    0.0000 C   0  0  0  0  0  0  0  0  0  0  0  0
    9.7942   -2.0000    0.0000 C   0  0  0  0  0  0  0  0  0  0  0  0
    8.9282   -3.5000    0.0000 C   0  0  0  0  0  0  0  0  0  0  0  0
    6.3301    1.0000    0.0000 C   0  0  0  0  0  0  0  0  0  0  0  0
    5.4641    1.5000    0.0000 C   0  0  0  0  0  0  0  0  0  0  0  0
    4.5981    1.0000    0.0000 C   0  0  0  0  0  0  0  0  0  0  0  0
    5.4641    2.5000    0.0000 C   0  0  0  0  0  0  0  0  0  0  0  0
    3.7320    1.5000    0.0000 C   0  0  0  0  0  0  0  0  0  0  0  0
    4.5981    3.0000    0.0000 C   0  0  0  0  0  0  0  0  0  0  0  0
    3.7320    2.5000    0.0000 C   0  0  0  0  0  0  0  0  0  0  0  0
    4.5981    4.0000    0.0000 C   0  0  0  0  0  0  0  0  0  0  0  0
    2.8660    1.0000    0.0000 C   0  0  0  0  0  0  0  0  0  0  0  0
    5.7101   -5.0000    0.0000 H   0  0  0  0  0  0  0  0  0  0  0  0
    6.3301   -5.6200    0.0000 H   0  0  0  0  0  0  0  0  0  0  0  0
    6.9501   -5.0000    0.0000 H   0  0  0  0  0  0  0  0  0  0  0  0
    5.3301   -3.3800    0.0000 H   0  0  0  0  0  0  0  0  0  0  0  0
    4.7101   -4.0000    0.0000 H   0  0  0  0  0  0  0  0  0  0  0  0
    5.3301   -4.6200    0.0000 H   0  0  0  0  0  0  0  0  0  0  0  0
    7.3301   -4.6200    0.0000 H   0  0  0  0  0  0  0  0  0  0  0  0
    7.9501   -4.0000    0.0000 H   0  0  0  0  0  0  0  0  0  0  0  0
    7.3301   -3.3800    0.0000 H   0  0  0  0  0  0  0  0  0  0  0  0
    5.3301   -2.3800    0.0000 H   0  0  0  0  0  0  0  0  0  0  0  0
    4.7101   -3.0000    0.0000 H   0  0  0  0  0  0  0  0  0  0  0  0
    5.3301   -3.6200    0.0000 H   0  0  0  0  0  0  0  0  0  0  0  0
    7.3301   -3.6200    0.0000 H   0  0  0  0  0  0  0  0  0  0  0  0
    7.9501   -3.0000    0.0000 H   0  0  0  0  0  0  0  0  0  0  0  0
    7.3301   -2.3800    0.0000 H   0  0  0  0  0  0  0  0  0  0  0  0
    6.6592   -1.1900    0.0000 H   0  0  0  0  0  0  0  0  0  0  0  0
   13.5683   -2.5369    0.0000 H   0  0  0  0  0  0  0  0  0  0  0  0
   13.7953   -1.6900    0.0000 H   0  0  0  0  0  0  0  0  0  0  0  0
   12.9483   -1.4631    0.0000 H   0  0  0  0  0  0  0  0  0  0  0  0
   12.3554   -3.6760    0.0000 H   0  0  0  0  0  0  0  0  0  0  0  0
   13.2023   -3.9030    0.0000 H   0  0  0  0  0  0  0  0  0  0  0  0
   13.4292   -3.0560    0.0000 H   0  0  0  0  0  0  0  0  0  0  0  0
   12.4292   -1.3240    0.0000 H   0  0  0  0  0  0  0  0  0  0  0  0
   11.5823   -1.0970    0.0000 H   0  0  0  0  0  0  0  0  0  0  0  0
   11.3554   -1.9440    0.0000 H   0  0  0  0  0  0  0  0  0  0  0  0
   11.4893   -4.1760    0.0000 H   0  0  0  0  0  0  0  0  0  0  0  0
   12.3363   -4.4030    0.0000 H   0  0  0  0  0  0  0  0  0  0  0  0
   12.5632   -3.5560    0.0000 H   0  0  0  0  0  0  0  0  0  0  0  0
   11.5632   -1.8240    0.0000 H   0  0  0  0  0  0  0  0  0  0  0  0
   10.7163   -1.5970    0.0000 H   0  0  0  0  0  0  0  0  0  0  0  0
   10.4893   -2.4440    0.0000 H   0  0  0  0  0  0  0  0  0  0  0  0
    7.8067   -0.6077    0.0000 H   0  0  0  0  0  0  0  0  0  0  0  0
    7.4082    0.0826    0.0000 H   0  0  0  0  0  0  0  0  0  0  0  0
    8.9282   -0.8800    0.0000 H   0  0  0  0  0  0  0  0  0  0  0  0
    7.5252   -3.3100    0.0000 H   0  0  0  0  0  0  0  0  0  0  0  0
   10.3312   -1.6900    0.0000 H   0  0  0  0  0  0  0  0  0  0  0  0
    8.9282   -4.1200    0.0000 H   0  0  0  0  0  0  0  0  0  0  0  0
    5.7932   -0.3100    0.0000 H   0  0  0  0  0  0  0  0  0  0  0  0
    4.5981    0.3800    0.0000 H   0  0  0  0  0  0  0  0  0  0  0  0
    6.0010    2.8100    0.0000 H   0  0  0  0  0  0  0  0  0  0  0  0
    3.1951    2.8100    0.0000 H   0  0  0  0  0  0  0  0  0  0  0  0
  1  9  1  0  0  0  0
  1 13  1  0  0  0  0
  1 18  1  0  0  0  0
  1 19  1  0  0  0  0
  2 10  1  0  0  0  0
  2 14  1  0  0  0  0
  2 24  1  0  0  0  0
  2 25  1  0  0  0  0
  3 40  1  0  0  0  0
  4 40  1  0  0  0  0
  5 40  1  0  0  0  0
  6 41  1  0  0  0  0
  7 41  1  0  0  0  0
  8 41  1  0  0  0  0
  9 20  1  0  0  0  0
 10 28  1  0  0  0  0
 11 33  2  0  0  0  0
 12 27  1  0  0  0  0
 12 33  1  0  0  0  0
 12 79  1  0  0  0  0
 13 15  1  0  0  0  0
 13 16  1  0  0  0  0
 13 17  1  0  0  0  0
 14 21  1  0  0  0  0
 14 22  1  0  0  0  0
 14 23  1  0  0  0  0
 15 42  1  0  0  0  0
 15 43  1  0  0  0  0
 15 44  1  0  0  0  0
 16 45  1  0  0  0  0
 16 46  1  0  0  0  0
 16 47  1  0  0  0  0
 17 48  1  0  0  0  0
 17 49  1  0  0  0  0
 17 50  1  0  0  0  0
 18 51  1  0  0  0  0
 18 52  1  0  0  0  0
 18 53  1  0  0  0  0
 19 54  1  0  0  0  0
 19 55  1  0  0  0  0
 19 56  1  0  0  0  0
 20 26  1  0  0  0  0
 20 27  1  0  0  0  0
 20 57  1  0  0  0  0
 21 58  1  0  0  0  0
 21 59  1  0  0  0  0
 21 60  1  0  0  0  0
 22 61  1  0  0  0  0
 22 62  1  0  0  0  0
 22 63  1  0  0  0  0
 23 64  1  0  0  0  0
 23 65  1  0  0  0  0
 23 66  1  0  0  0  0
 24 67  1  0  0  0  0
 24 68  1  0  0  0  0
 24 69  1  0  0  0  0
 25 70  1  0  0  0  0
 25 71  1  0  0  0  0
 25 72  1  0  0  0  0
 26 29  2  0  0  0  0
 26 30  1  0  0  0  0
 27 73  1  0  0  0  0
 27 74  1  0  0  0  0
 28 31  2  0  0  0  0
 28 32  1  0  0  0  0
 29 31  1  0  0  0  0
 29 75  1  0  0  0  0
 30 32  2  0  0  0  0
 30 76  1  0  0  0  0
 31 77  1  0  0  0  0
 32 78  1  0  0  0  0
 33 34  1  0  0  0  0
 34 35  2  0  0  0  0
 34 36  1  0  0  0  0
 35 37  1  0  0  0  0
 35 80  1  0  0  0  0
 36 38  2  0  0  0  0
 36 81  1  0  0  0  0
 37 39  2  0  0  0  0
 37 41  1  0  0  0  0
 38 39  1  0  0  0  0
 38 40  1  0  0  0  0
 39 82  1  0  0  0  0
M  END
> <PUBCHEM_COMPOUND_CID>
528737
> <PUBCHEM_COMPOUND_CANONICALIZED>
1
> <PUBCHEM_CACTVS_COMPLEXITY>
850
> <PUBCHEM_CACTVS_HBOND_ACCEPTOR>
9
> <PUBCHEM_CACTVS_HBOND_DONOR>
1
> <PUBCHEM_CACTVS_ROTATABLE_BOND>
10
> <PUBCHEM_CACTVS_SUBSKEYS>
AAADcfB6McwAAAAAAAAAAAAAAAAAAAAAAAAwYAAAAAAAAAABQAAAHxAQAEAADBThuBZyBoLAAAGIAiFSEACCAAAkIAAIiIEODMgKJjKAlROEMQhk1hGYiYeY6OSOIAACAAAAAABAAAQAAAAAAAAAAAAAAA==
> <PUBCHEM_IUPAC_OPENEYE_NAME>
N-[2-[tert-butyl(dimethyl)silyl]oxy-2-[4-[tert-butyl(dimethyl)silyl]oxyphenyl]ethyl]-3,5-bis(trifluoromethyl)benzamide
> <PUBCHEM_IUPAC_CAS_NAME>
N-[2-[tert-butyl(dimethyl)silyl]oxy-2-[4-[tert-butyl(dimethyl)silyl]oxyphenyl]ethyl]-3,5-bis(trifluoromethyl)benzamide
> <PUBCHEM_IUPAC_NAME_MARKUP>
<I>N</I>-[2-[<I>tert</I>-butyl(dimethyl)silyl]oxy-2-[4-[<I>tert</I>-butyl(dimethyl)silyl]oxyphenyl]ethyl]-3,5-bis(trifluoromethyl)benzamide
> <PUBCHEM_IUPAC_NAME>
N-[2-[tert-butyl(dimethyl)silyl]oxy-2-[4-[tert-butyl(dimethyl)silyl]oxyphenyl]ethyl]-3,5-bis(trifluoromethyl)benzamide
> <PUBCHEM_IUPAC_SYSTEMATIC_NAME>
N-[2-[tert-butyl(dimethyl)silyl]oxy-2-[4-[tert-butyl(dimethyl)silyl]oxyphenyl]ethyl]-3,5-bis(trifluoromethyl)benzamide
> <PUBCHEM_IUPAC_TRADITIONAL_NAME>
N-[2-[tert-butyl(dimethyl)silyl]oxy-2-[4-[tert-butyl(dimethyl)silyl]oxyphenyl]ethyl]-3,5-bis(trifluoromethyl)benzamide
> <PUBCHEM_IUPAC_INCHI>
InChI=1S/C29H41F6NO3Si2/c1-26(2,3)40(7,8)38-23-13-11-19(12-14-23)24(39-41(9,10)27(4,5)6)18-36-25(37)20-15-21(28(30,31)32)17-22(16-20)29(33,34)35/h11-17,24H,18H2,1-10H3,(H,36,37)
> <PUBCHEM_IUPAC_INCHIKEY>
GNUMIRWFEUSDSJ-UHFFFAOYSA-N
> <PUBCHEM_EXACT_MASS>
621.25291621
> <PUBCHEM_MOLECULAR_FORMULA>
C29H41F6NO3Si2
> <PUBCHEM_MOLECULAR_WEIGHT>
621.8
> <PUBCHEM_OPENEYE_CAN_SMILES>
CC(C)(C)[Si](C)(C)OC1=CC=C(C=C1)C(CNC(=O)C2=CC(=CC(=C2)C(F)(F)F)C(F)(F)F)O[Si](C)(C)C(C)(C)C
> <PUBCHEM_OPENEYE_ISO_SMILES>
CC(C)(C)[Si](C)(C)OC1=CC=C(C=C1)C(CNC(=O)C2=CC(=CC(=C2)C(F)(F)F)C(F)(F)F)O[Si](C)(C)C(C)(C)C
> <PUBCHEM_CACTVS_TPSA>
47.6
> <PUBCHEM_MONOISOTOPIC_WEIGHT>
621.25291621
> <PUBCHEM_TOTAL_CHARGE>
0
> <PUBCHEM_HEAVY_ATOM_COUNT>
41
> <PUBCHEM_ATOM_DEF_STEREO_COUNT>
0
> <PUBCHEM_ATOM_UDEF_STEREO_COUNT>
1
> <PUBCHEM_BOND_DEF_STEREO_COUNT>
0
> <PUBCHEM_BOND_UDEF_STEREO_COUNT>
0
> <PUBCHEM_ISOTOPIC_ATOM_COUNT>
0
> <PUBCHEM_COMPONENT_COUNT>
1
> <PUBCHEM_CACTVS_TAUTO_COUNT>
-1
> <PUBCHEM_COORDINATE_TYPE>
1
5
255
> <PUBCHEM_BONDANNOTATIONS>
20  27  3
26  29  8
26  30  8
28  31  8
28  32  8
29  31  8
30  32  8
34  35  8
34  36  8
35  37  8
36  38  8
37  39  8
38  39  8
$$$$
