528702
  -OEChem-10302200292D
 16 16  0     1  0  0  0  0  0999 V2000
    3.7601    1.5189    0.0000 O   0  0  0  0  0  0  0  0  0  0  0  0
    2.0000    0.2402    0.0000 O   0  0  0  0  0  0  0  0  0  0  0  0
    4.2601   -1.0199    0.0000 C   0  0  3  0  0  0  0  0  0  0  0  0
    3.2601   -1.0199    0.0000 C   0  0  0  0  0  0  0  0  0  0  0  0
    4.5691   -0.0689    0.0000 C   0  0  0  0  0  0  0  0  0  0  0  0
    2.9511   -0.0689    0.0000 C   0  0  0  0  0  0  0  0  0  0  0  0
    4.8479   -1.8289    0.0000 C   0  0  0  0  0  0  0  0  0  0  0  0
    3.7601    0.5189    0.0000 C   0  0  0  0  0  0  0  0  0  0  0  0
    4.8724   -0.9229    0.0000 H   0  0  0  0  0  0  0  0  0  0  0  0
    2.6536   -1.1488    0.0000 H   0  0  0  0  0  0  0  0  0  0  0  0
    3.3249   -1.6365    0.0000 H   0  0  0  0  0  0  0  0  0  0  0  0
    5.1588    0.1227    0.0000 H   0  0  0  0  0  0  0  0  0  0  0  0
    4.3463   -2.1934    0.0000 H   0  0  0  0  0  0  0  0  0  0  0  0
    5.2123   -2.3305    0.0000 H   0  0  0  0  0  0  0  0  0  0  0  0
    5.3494   -1.4645    0.0000 H   0  0  0  0  0  0  0  0  0  0  0  0
    4.2970    1.8289    0.0000 H   0  0  0  0  0  0  0  0  0  0  0  0
  1  8  1  0  0  0  0
  1 16  1  0  0  0  0
  2  6  2  0  0  0  0
  3  4  1  0  0  0  0
  3  5  1  0  0  0  0
  3  7  1  0  0  0  0
  3  9  1  0  0  0  0
  4  6  1  0  0  0  0
  4 10  1  0  0  0  0
  4 11  1  0  0  0  0
  5  8  2  0  0  0  0
  5 12  1  0  0  0  0
  6  8  1  0  0  0  0
  7 13  1  0  0  0  0
  7 14  1  0  0  0  0
  7 15  1  0  0  0  0
M  END
> <PUBCHEM_COMPOUND_CID>
528702
> <PUBCHEM_COMPOUND_CANONICALIZED>
1
> <PUBCHEM_CACTVS_COMPLEXITY>
147
> <PUBCHEM_CACTVS_HBOND_ACCEPTOR>
2
> <PUBCHEM_CACTVS_HBOND_DONOR>
1
> <PUBCHEM_CACTVS_ROTATABLE_BOND>
0
> <PUBCHEM_CACTVS_SUBSKEYS>
AAADccBgMAAAAAAAAAAAAAAAAAAAAQAAAAAAAAAAAAAAAAAAAAAAGgAACAAADQSAgAACAAAAAgCIAKBSAAIAAAAgIAAACAFAAEgAABIAAAAAQAAEgAAIAYKAAAAMAAAAAAAAAAAAAAAAAAAAAAAAAAAAAA==
> <PUBCHEM_IUPAC_OPENEYE_NAME>
2-hydroxy-4-methyl-cyclopent-2-en-1-one
> <PUBCHEM_IUPAC_CAS_NAME>
2-hydroxy-4-methyl-1-cyclopent-2-enone
> <PUBCHEM_IUPAC_NAME_MARKUP>
2-hydroxy-4-methylcyclopent-2-en-1-one
> <PUBCHEM_IUPAC_NAME>
2-hydroxy-4-methylcyclopent-2-en-1-one
> <PUBCHEM_IUPAC_SYSTEMATIC_NAME>
4-methyl-2-oxidanyl-cyclopent-2-en-1-one
> <PUBCHEM_IUPAC_TRADITIONAL_NAME>
2-hydroxy-4-methyl-cyclopent-2-en-1-one
> <PUBCHEM_IUPAC_INCHI>
InChI=1S/C6H8O2/c1-4-2-5(7)6(8)3-4/h2,4,7H,3H2,1H3
> <PUBCHEM_IUPAC_INCHIKEY>
SFSXQNIOJABGSJ-UHFFFAOYSA-N
> <PUBCHEM_XLOGP3_AA>
0.7
> <PUBCHEM_EXACT_MASS>
112.052429494
> <PUBCHEM_MOLECULAR_FORMULA>
C6H8O2
> <PUBCHEM_MOLECULAR_WEIGHT>
112.13
> <PUBCHEM_OPENEYE_CAN_SMILES>
CC1CC(=O)C(=C1)O
> <PUBCHEM_OPENEYE_ISO_SMILES>
CC1CC(=O)C(=C1)O
> <PUBCHEM_CACTVS_TPSA>
37.3
> <PUBCHEM_MONOISOTOPIC_WEIGHT>
112.052429494
> <PUBCHEM_TOTAL_CHARGE>
0
> <PUBCHEM_HEAVY_ATOM_COUNT>
8
> <PUBCHEM_ATOM_DEF_STEREO_COUNT>
0
> <PUBCHEM_ATOM_UDEF_STEREO_COUNT>
1
> <PUBCHEM_BOND_DEF_STEREO_COUNT>
0
> <PUBCHEM_BOND_UDEF_STEREO_COUNT>
0
> <PUBCHEM_ISOTOPIC_ATOM_COUNT>
0
> <PUBCHEM_COMPONENT_COUNT>
1
> <PUBCHEM_CACTVS_TAUTO_COUNT>
-1
> <PUBCHEM_COORDINATE_TYPE>
1
5
255
> <PUBCHEM_BONDANNOTATIONS>
3  7  3
$$$$
