528748
  -OEChem-10302200292D
 43 43  0     1  0  0  0  0  0999 V2000
    6.3301   -0.3100    0.0000 S   0  0  0  0  0  0  0  0  0  0  0  0
    8.0622   -0.3100    0.0000 S   0  0  0  0  0  0  0  0  0  0  0  0
    7.1962    1.1900    0.0000 N   0  0  0  0  0  0  0  0  0  0  0  0
    6.3301    0.6900    0.0000 C   0  0  3  0  0  0  0  0  0  0  0  0
    8.0622    0.6900    0.0000 C   0  0  3  0  0  0  0  0  0  0  0  0
    5.4641    1.1900    0.0000 C   0  0  0  0  0  0  0  0  0  0  0  0
    8.9282    1.1900    0.0000 C   0  0  0  0  0  0  0  0  0  0  0  0
    4.5981    0.6900    0.0000 C   0  0  0  0  0  0  0  0  0  0  0  0
    7.1962   -0.8100    0.0000 C   0  0  3  0  0  0  0  0  0  0  0  0
    9.7942    0.6900    0.0000 C   0  0  0  0  0  0  0  0  0  0  0  0
    3.7320    1.1900    0.0000 C   0  0  0  0  0  0  0  0  0  0  0  0
   10.6603    1.1900    0.0000 C   0  0  0  0  0  0  0  0  0  0  0  0
    7.1962   -1.8100    0.0000 C   0  0  0  0  0  0  0  0  0  0  0  0
    2.8660    0.6900    0.0000 C   0  0  0  0  0  0  0  0  0  0  0  0
   11.5263    0.6900    0.0000 C   0  0  0  0  0  0  0  0  0  0  0  0
    2.0000    1.1900    0.0000 C   0  0  0  0  0  0  0  0  0  0  0  0
    5.7932    0.3800    0.0000 H   0  0  0  0  0  0  0  0  0  0  0  0
    8.0622    1.3100    0.0000 H   0  0  0  0  0  0  0  0  0  0  0  0
    5.8626    1.6650    0.0000 H   0  0  0  0  0  0  0  0  0  0  0  0
    5.0656    1.6650    0.0000 H   0  0  0  0  0  0  0  0  0  0  0  0
    7.1962    1.8100    0.0000 H   0  0  0  0  0  0  0  0  0  0  0  0
    9.3267    1.6650    0.0000 H   0  0  0  0  0  0  0  0  0  0  0  0
    8.5297    1.6650    0.0000 H   0  0  0  0  0  0  0  0  0  0  0  0
    4.1996    0.2151    0.0000 H   0  0  0  0  0  0  0  0  0  0  0  0
    4.9966    0.2151    0.0000 H   0  0  0  0  0  0  0  0  0  0  0  0
    6.6592   -1.1200    0.0000 H   0  0  0  0  0  0  0  0  0  0  0  0
    9.3957    0.2151    0.0000 H   0  0  0  0  0  0  0  0  0  0  0  0
   10.1928    0.2151    0.0000 H   0  0  0  0  0  0  0  0  0  0  0  0
    4.1306    1.6650    0.0000 H   0  0  0  0  0  0  0  0  0  0  0  0
    3.3335    1.6650    0.0000 H   0  0  0  0  0  0  0  0  0  0  0  0
   11.0588    1.6650    0.0000 H   0  0  0  0  0  0  0  0  0  0  0  0
   10.2617    1.6650    0.0000 H   0  0  0  0  0  0  0  0  0  0  0  0
    6.5762   -1.8100    0.0000 H   0  0  0  0  0  0  0  0  0  0  0  0
    7.1962   -2.4300    0.0000 H   0  0  0  0  0  0  0  0  0  0  0  0
    7.8162   -1.8100    0.0000 H   0  0  0  0  0  0  0  0  0  0  0  0
    2.4675    0.2151    0.0000 H   0  0  0  0  0  0  0  0  0  0  0  0
    3.2646    0.2151    0.0000 H   0  0  0  0  0  0  0  0  0  0  0  0
   11.2163    0.1531    0.0000 H   0  0  0  0  0  0  0  0  0  0  0  0
   12.0632    0.3800    0.0000 H   0  0  0  0  0  0  0  0  0  0  0  0
   11.8363    1.2269    0.0000 H   0  0  0  0  0  0  0  0  0  0  0  0
    2.3100    1.7269    0.0000 H   0  0  0  0  0  0  0  0  0  0  0  0
    1.4631    1.5000    0.0000 H   0  0  0  0  0  0  0  0  0  0  0  0
    1.6900    0.6531    0.0000 H   0  0  0  0  0  0  0  0  0  0  0  0
  1  4  1  0  0  0  0
  1  9  1  0  0  0  0
  2  5  1  0  0  0  0
  2  9  1  0  0  0  0
  3  4  1  0  0  0  0
  3  5  1  0  0  0  0
  3 21  1  0  0  0  0
  4  6  1  0  0  0  0
  4 17  1  0  0  0  0
  5  7  1  0  0  0  0
  5 18  1  0  0  0  0
  6  8  1  0  0  0  0
  6 19  1  0  0  0  0
  6 20  1  0  0  0  0
  7 10  1  0  0  0  0
  7 22  1  0  0  0  0
  7 23  1  0  0  0  0
  8 11  1  0  0  0  0
  8 24  1  0  0  0  0
  8 25  1  0  0  0  0
  9 13  1  0  0  0  0
  9 26  1  0  0  0  0
 10 12  1  0  0  0  0
 10 27  1  0  0  0  0
 10 28  1  0  0  0  0
 11 14  1  0  0  0  0
 11 29  1  0  0  0  0
 11 30  1  0  0  0  0
 12 15  1  0  0  0  0
 12 31  1  0  0  0  0
 12 32  1  0  0  0  0
 13 33  1  0  0  0  0
 13 34  1  0  0  0  0
 13 35  1  0  0  0  0
 14 16  1  0  0  0  0
 14 36  1  0  0  0  0
 14 37  1  0  0  0  0
 15 38  1  0  0  0  0
 15 39  1  0  0  0  0
 15 40  1  0  0  0  0
 16 41  1  0  0  0  0
 16 42  1  0  0  0  0
 16 43  1  0  0  0  0
M  END
> <PUBCHEM_COMPOUND_CID>
528748
> <PUBCHEM_COMPOUND_CANONICALIZED>
1
> <PUBCHEM_CACTVS_COMPLEXITY>
175
> <PUBCHEM_CACTVS_HBOND_ACCEPTOR>
3
> <PUBCHEM_CACTVS_HBOND_DONOR>
1
> <PUBCHEM_CACTVS_ROTATABLE_BOND>
7
> <PUBCHEM_CACTVS_SUBSKEYS>
AAADceByAABgAAAAAAAAAAAAAAAAAAAAAAAsAAAAAAAAAAAAAAAAHAQQAAAACADFQASCAALAAAgAAAAAAAAAAQBAABAAAIAIAAAAAAIggAAEAAAAEACgAAEQAAAAAAAAAAAAAAAAAAAAAAAAAAAAAAAAAA==
> <PUBCHEM_IUPAC_OPENEYE_NAME>
4-butyl-2-methyl-6-pentyl-1,3,5-dithiazinane
> <PUBCHEM_IUPAC_CAS_NAME>
4-butyl-2-methyl-6-pentyl-1,3,5-dithiazinane
> <PUBCHEM_IUPAC_NAME_MARKUP>
4-butyl-2-methyl-6-pentyl-1,3,5-dithiazinane
> <PUBCHEM_IUPAC_NAME>
4-butyl-2-methyl-6-pentyl-1,3,5-dithiazinane
> <PUBCHEM_IUPAC_SYSTEMATIC_NAME>
4-butyl-2-methyl-6-pentyl-1,3,5-dithiazinane
> <PUBCHEM_IUPAC_TRADITIONAL_NAME>
4-amyl-6-butyl-2-methyl-1,3,5-dithiazinane
> <PUBCHEM_IUPAC_INCHI>
InChI=1S/C13H27NS2/c1-4-6-8-10-13-14-12(9-7-5-2)15-11(3)16-13/h11-14H,4-10H2,1-3H3
> <PUBCHEM_IUPAC_INCHIKEY>
YSHOAYUYWBSGHO-UHFFFAOYSA-N
> <PUBCHEM_XLOGP3_AA>
5.9
> <PUBCHEM_EXACT_MASS>
261.15849221
> <PUBCHEM_MOLECULAR_FORMULA>
C13H27NS2
> <PUBCHEM_MOLECULAR_WEIGHT>
261.5
> <PUBCHEM_OPENEYE_CAN_SMILES>
CCCCCC1NC(SC(S1)C)CCCC
> <PUBCHEM_OPENEYE_ISO_SMILES>
CCCCCC1NC(SC(S1)C)CCCC
> <PUBCHEM_CACTVS_TPSA>
62.6
> <PUBCHEM_MONOISOTOPIC_WEIGHT>
261.15849221
> <PUBCHEM_TOTAL_CHARGE>
0
> <PUBCHEM_HEAVY_ATOM_COUNT>
16
> <PUBCHEM_ATOM_DEF_STEREO_COUNT>
0
> <PUBCHEM_ATOM_UDEF_STEREO_COUNT>
3
> <PUBCHEM_BOND_DEF_STEREO_COUNT>
0
> <PUBCHEM_BOND_UDEF_STEREO_COUNT>
0
> <PUBCHEM_ISOTOPIC_ATOM_COUNT>
0
> <PUBCHEM_COMPONENT_COUNT>
1
> <PUBCHEM_CACTVS_TAUTO_COUNT>
-1
> <PUBCHEM_COORDINATE_TYPE>
1
5
255
> <PUBCHEM_BONDANNOTATIONS>
4  6  3
5  7  3
9  13  3
$$$$
