528760
  -OEChem-10302200292D
 56 59  0     1  0  0  0  0  0999 V2000
    9.6851    1.4410    0.0000 O   0  0  0  0  0  0  0  0  0  0  0  0
    2.5357   -2.5024    0.0000 O   0  0  0  0  0  0  0  0  0  0  0  0
    7.9288    0.5499    0.0000 C   0  0  3  0  0  0  0  0  0  0  0  0
    7.9288   -0.4501    0.0000 C   0  0  3  0  0  0  0  0  0  0  0  0
    7.0628   -0.9501    0.0000 C   0  0  3  0  0  0  0  0  0  0  0  0
    6.1968   -0.4501    0.0000 C   0  0  3  0  0  0  0  0  0  0  0  0
    8.8750    0.8547    0.0000 C   0  0  3  0  0  0  0  0  0  0  0  0
    5.2868   -0.9569    0.0000 C   0  0  3  0  0  0  0  0  0  0  0  0
    7.0628    1.0499    0.0000 C   0  0  0  0  0  0  0  0  0  0  0  0
    6.1968    0.5499    0.0000 C   0  0  0  0  0  0  0  0  0  0  0  0
    8.8750   -0.7548    0.0000 C   0  0  0  0  0  0  0  0  0  0  0  0
    5.2787   -1.9985    0.0000 C   0  0  3  0  0  0  0  0  0  0  0  0
    7.0789   -1.9916    0.0000 C   0  0  0  0  0  0  0  0  0  0  0  0
    9.4586    0.0499    0.0000 C   0  0  0  0  0  0  0  0  0  0  0  0
    6.1808   -2.5193    0.0000 C   0  0  0  0  0  0  0  0  0  0  0  0
    7.9288    1.5499    0.0000 C   0  0  0  0  0  0  0  0  0  0  0  0
    4.3599   -0.3928    0.0000 C   0  0  0  0  0  0  0  0  0  0  0  0
    4.3433   -2.5482    0.0000 C   0  0  0  0  0  0  0  0  0  0  0  0
    8.5677    1.8062    0.0000 C   0  0  0  0  0  0  0  0  0  0  0  0
    3.4120   -0.9208    0.0000 C   0  0  0  0  0  0  0  0  0  0  0  0
    3.4037   -2.0057    0.0000 C   0  0  3  0  0  0  0  0  0  0  0  0
    9.2381    2.5482    0.0000 C   0  0  0  0  0  0  0  0  0  0  0  0
    8.0188   -1.2953    0.0000 H   0  0  0  0  0  0  0  0  0  0  0  0
    7.8022   -1.3694    0.0000 H   0  0  0  0  0  0  0  0  0  0  0  0
    6.9329   -0.0251    0.0000 H   0  0  0  0  0  0  0  0  0  0  0  0
    5.3031   -0.1071    0.0000 H   0  0  0  0  0  0  0  0  0  0  0  0
    7.4613    1.5249    0.0000 H   0  0  0  0  0  0  0  0  0  0  0  0
    6.6643    1.5249    0.0000 H   0  0  0  0  0  0  0  0  0  0  0  0
    5.9847    1.1325    0.0000 H   0  0  0  0  0  0  0  0  0  0  0  0
    5.5862    0.4423    0.0000 H   0  0  0  0  0  0  0  0  0  0  0  0
    8.6240   -1.3217    0.0000 H   0  0  0  0  0  0  0  0  0  0  0  0
    9.4124   -1.0640    0.0000 H   0  0  0  0  0  0  0  0  0  0  0  0
    5.2820   -2.8485    0.0000 H   0  0  0  0  0  0  0  0  0  0  0  0
    7.2969   -2.5720    0.0000 H   0  0  0  0  0  0  0  0  0  0  0  0
    7.6880   -1.8761    0.0000 H   0  0  0  0  0  0  0  0  0  0  0  0
    9.9195   -0.3648    0.0000 H   0  0  0  0  0  0  0  0  0  0  0  0
    9.9195    0.4647    0.0000 H   0  0  0  0  0  0  0  0  0  0  0  0
    5.7835   -2.9953    0.0000 H   0  0  0  0  0  0  0  0  0  0  0  0
    6.5818   -2.9922    0.0000 H   0  0  0  0  0  0  0  0  0  0  0  0
    8.5488    1.5499    0.0000 H   0  0  0  0  0  0  0  0  0  0  0  0
    7.9288    2.1699    0.0000 H   0  0  0  0  0  0  0  0  0  0  0  0
    7.3088    1.5499    0.0000 H   0  0  0  0  0  0  0  0  0  0  0  0
    4.7681    0.0738    0.0000 H   0  0  0  0  0  0  0  0  0  0  0  0
    3.9700    0.0892    0.0000 H   0  0  0  0  0  0  0  0  0  0  0  0
    3.9460   -3.0242    0.0000 H   0  0  0  0  0  0  0  0  0  0  0  0
    4.7443   -3.0211    0.0000 H   0  0  0  0  0  0  0  0  0  0  0  0
    8.1868    2.2955    0.0000 H   0  0  0  0  0  0  0  0  0  0  0  0
    8.0197    1.5161    0.0000 H   0  0  0  0  0  0  0  0  0  0  0  0
    3.2075   -0.3355    0.0000 H   0  0  0  0  0  0  0  0  0  0  0  0
    2.8004   -1.0222    0.0000 H   0  0  0  0  0  0  0  0  0  0  0  0
    3.4020   -2.8557    0.0000 H   0  0  0  0  0  0  0  0  0  0  0  0
   10.2510    1.1879    0.0000 H   0  0  0  0  0  0  0  0  0  0  0  0
    9.6981    2.1326    0.0000 H   0  0  0  0  0  0  0  0  0  0  0  0
    9.6537    3.0083    0.0000 H   0  0  0  0  0  0  0  0  0  0  0  0
    8.7780    2.9639    0.0000 H   0  0  0  0  0  0  0  0  0  0  0  0
    2.0000   -2.1903    0.0000 H   0  0  0  0  0  0  0  0  0  0  0  0
  1  7  1  0  0  0  0
  1 52  1  0  0  0  0
  2 21  1  0  0  0  0
  2 56  1  0  0  0  0
  3  4  1  0  0  0  0
  3  7  1  0  0  0  0
  3  9  1  0  0  0  0
  3 16  1  0  0  0  0
  4  5  1  0  0  0  0
  4 11  1  0  0  0  0
  4 23  1  0  0  0  0
  5  6  1  0  0  0  0
  5 13  1  0  0  0  0
  5 24  1  0  0  0  0
  6  8  1  0  0  0  0
  6 10  1  0  0  0  0
  6 25  1  0  0  0  0
  7 14  1  0  0  0  0
  7 19  1  0  0  0  0
  8 12  1  0  0  0  0
  8 17  1  0  0  0  0
  8 26  1  0  0  0  0
  9 10  1  0  0  0  0
  9 27  1  0  0  0  0
  9 28  1  0  0  0  0
 10 29  1  0  0  0  0
 10 30  1  0  0  0  0
 11 14  1  0  0  0  0
 11 31  1  0  0  0  0
 11 32  1  0  0  0  0
 12 15  1  0  0  0  0
 12 18  1  0  0  0  0
 12 33  1  0  0  0  0
 13 15  1  0  0  0  0
 13 34  1  0  0  0  0
 13 35  1  0  0  0  0
 14 36  1  0  0  0  0
 14 37  1  0  0  0  0
 15 38  1  0  0  0  0
 15 39  1  0  0  0  0
 16 40  1  0  0  0  0
 16 41  1  0  0  0  0
 16 42  1  0  0  0  0
 17 20  1  0  0  0  0
 17 43  1  0  0  0  0
 17 44  1  0  0  0  0
 18 21  1  0  0  0  0
 18 45  1  0  0  0  0
 18 46  1  0  0  0  0
 19 22  1  0  0  0  0
 19 47  1  0  0  0  0
 19 48  1  0  0  0  0
 20 21  1  0  0  0  0
 20 49  1  0  0  0  0
 20 50  1  0  0  0  0
 21 51  1  0  0  0  0
 22 53  1  0  0  0  0
 22 54  1  0  0  0  0
 22 55  1  0  0  0  0
M  END
> <PUBCHEM_COMPOUND_CID>
528760
> <PUBCHEM_COMPOUND_CANONICALIZED>
1
> <PUBCHEM_CACTVS_COMPLEXITY>
435
> <PUBCHEM_CACTVS_HBOND_ACCEPTOR>
2
> <PUBCHEM_CACTVS_HBOND_DONOR>
2
> <PUBCHEM_CACTVS_ROTATABLE_BOND>
1
> <PUBCHEM_CACTVS_SUBSKEYS>
AAADcfB4MAAAAAAAAAAAAAAAAAAAAYAAAAAwYMAAAAAAAGDAAAAAGgAACAAAD1SggAICAAAAAgAAAAAAAAAAAAAAAAAAAAAAAAAAEAIAAAAAQAAEAAAAAAGAwPAPgAAAAAAAAADAAAYAACAAAYAADAAAAA==
> <PUBCHEM_IUPAC_OPENEYE_NAME>
17-ethyl-13-methyl-2,3,4,5,6,7,8,9,10,11,12,14,15,16-tetradecahydro-1H-cyclopenta[a]phenanthrene-3,17-diol
> <PUBCHEM_IUPAC_CAS_NAME>
17-ethyl-13-methyl-2,3,4,5,6,7,8,9,10,11,12,14,15,16-tetradecahydro-1H-cyclopenta[a]phenanthrene-3,17-diol
> <PUBCHEM_IUPAC_NAME_MARKUP>
17-ethyl-13-methyl-2,3,4,5,6,7,8,9,10,11,12,14,15,16-tetradecahydro-1<I>H</I>-cyclopenta[a]phenanthrene-3,17-diol
> <PUBCHEM_IUPAC_NAME>
17-ethyl-13-methyl-2,3,4,5,6,7,8,9,10,11,12,14,15,16-tetradecahydro-1H-cyclopenta[a]phenanthrene-3,17-diol
> <PUBCHEM_IUPAC_SYSTEMATIC_NAME>
17-ethyl-13-methyl-2,3,4,5,6,7,8,9,10,11,12,14,15,16-tetradecahydro-1H-cyclopenta[a]phenanthrene-3,17-diol
> <PUBCHEM_IUPAC_TRADITIONAL_NAME>
17-ethyl-13-methyl-2,3,4,5,6,7,8,9,10,11,12,14,15,16-tetradecahydro-1H-cyclopenta[a]phenanthrene-3,17-diol
> <PUBCHEM_IUPAC_INCHI>
InChI=1S/C20H34O2/c1-3-20(22)11-9-18-17-6-4-13-12-14(21)5-7-15(13)16(17)8-10-19(18,20)2/h13-18,21-22H,3-12H2,1-2H3
> <PUBCHEM_IUPAC_INCHIKEY>
GUBNWXDDDXQJOQ-UHFFFAOYSA-N
> <PUBCHEM_XLOGP3_AA>
4.5
> <PUBCHEM_EXACT_MASS>
306.255880323
> <PUBCHEM_MOLECULAR_FORMULA>
C20H34O2
> <PUBCHEM_MOLECULAR_WEIGHT>
306.5
> <PUBCHEM_OPENEYE_CAN_SMILES>
CCC1(CCC2C1(CCC3C2CCC4C3CCC(C4)O)C)O
> <PUBCHEM_OPENEYE_ISO_SMILES>
CCC1(CCC2C1(CCC3C2CCC4C3CCC(C4)O)C)O
> <PUBCHEM_CACTVS_TPSA>
40.5
> <PUBCHEM_MONOISOTOPIC_WEIGHT>
306.255880323
> <PUBCHEM_TOTAL_CHARGE>
0
> <PUBCHEM_HEAVY_ATOM_COUNT>
22
> <PUBCHEM_ATOM_DEF_STEREO_COUNT>
0
> <PUBCHEM_ATOM_UDEF_STEREO_COUNT>
8
> <PUBCHEM_BOND_DEF_STEREO_COUNT>
0
> <PUBCHEM_BOND_UDEF_STEREO_COUNT>
0
> <PUBCHEM_ISOTOPIC_ATOM_COUNT>
0
> <PUBCHEM_COMPONENT_COUNT>
1
> <PUBCHEM_CACTVS_TAUTO_COUNT>
1
> <PUBCHEM_COORDINATE_TYPE>
1
5
255
> <PUBCHEM_BONDANNOTATIONS>
7  1  3
12  33  3
21  51  3
3  16  3
4  23  3
5  24  3
6  25  3
8  26  3
$$$$
