528751
  -OEChem-10302200292D
 40 40  0     1  0  0  0  0  0999 V2000
    6.3301    0.4400    0.0000 S   0  0  0  0  0  0  0  0  0  0  0  0
    8.0622    0.4400    0.0000 S   0  0  0  0  0  0  0  0  0  0  0  0
    7.1962    1.9400    0.0000 N   0  0  0  0  0  0  0  0  0  0  0  0
    6.3301    1.4400    0.0000 C   0  0  3  0  0  0  0  0  0  0  0  0
    5.4641    1.9400    0.0000 C   0  0  0  0  0  0  0  0  0  0  0  0
    7.1962   -0.0600    0.0000 C   0  0  3  0  0  0  0  0  0  0  0  0
    8.0622    1.4400    0.0000 C   0  0  3  0  0  0  0  0  0  0  0  0
    4.5981    1.4400    0.0000 C   0  0  0  0  0  0  0  0  0  0  0  0
    7.1962   -1.0600    0.0000 C   0  0  0  0  0  0  0  0  0  0  0  0
    3.7320    1.9400    0.0000 C   0  0  0  0  0  0  0  0  0  0  0  0
    8.0622   -1.5600    0.0000 C   0  0  0  0  0  0  0  0  0  0  0  0
    8.9282    1.9400    0.0000 C   0  0  0  0  0  0  0  0  0  0  0  0
    2.8660    1.4400    0.0000 C   0  0  0  0  0  0  0  0  0  0  0  0
    8.0622   -2.5600    0.0000 C   0  0  0  0  0  0  0  0  0  0  0  0
    2.0000    1.9400    0.0000 C   0  0  0  0  0  0  0  0  0  0  0  0
    5.7932    1.1300    0.0000 H   0  0  0  0  0  0  0  0  0  0  0  0
    5.8626    2.4150    0.0000 H   0  0  0  0  0  0  0  0  0  0  0  0
    5.0656    2.4150    0.0000 H   0  0  0  0  0  0  0  0  0  0  0  0
    6.6592   -0.3700    0.0000 H   0  0  0  0  0  0  0  0  0  0  0  0
    8.0622    2.0600    0.0000 H   0  0  0  0  0  0  0  0  0  0  0  0
    4.1996    0.9651    0.0000 H   0  0  0  0  0  0  0  0  0  0  0  0
    4.9966    0.9651    0.0000 H   0  0  0  0  0  0  0  0  0  0  0  0
    7.1962    2.5600    0.0000 H   0  0  0  0  0  0  0  0  0  0  0  0
    6.5856   -0.9523    0.0000 H   0  0  0  0  0  0  0  0  0  0  0  0
    6.9841   -1.6426    0.0000 H   0  0  0  0  0  0  0  0  0  0  0  0
    4.1306    2.4150    0.0000 H   0  0  0  0  0  0  0  0  0  0  0  0
    3.3335    2.4150    0.0000 H   0  0  0  0  0  0  0  0  0  0  0  0
    8.6728   -1.6677    0.0000 H   0  0  0  0  0  0  0  0  0  0  0  0
    8.2742   -0.9774    0.0000 H   0  0  0  0  0  0  0  0  0  0  0  0
    9.2382    1.4031    0.0000 H   0  0  0  0  0  0  0  0  0  0  0  0
    9.4651    2.2500    0.0000 H   0  0  0  0  0  0  0  0  0  0  0  0
    8.6182    2.4769    0.0000 H   0  0  0  0  0  0  0  0  0  0  0  0
    2.4675    0.9651    0.0000 H   0  0  0  0  0  0  0  0  0  0  0  0
    3.2646    0.9651    0.0000 H   0  0  0  0  0  0  0  0  0  0  0  0
    7.4422   -2.5600    0.0000 H   0  0  0  0  0  0  0  0  0  0  0  0
    8.0622   -3.1800    0.0000 H   0  0  0  0  0  0  0  0  0  0  0  0
    8.6822   -2.5600    0.0000 H   0  0  0  0  0  0  0  0  0  0  0  0
    2.3100    2.4769    0.0000 H   0  0  0  0  0  0  0  0  0  0  0  0
    1.4631    2.2500    0.0000 H   0  0  0  0  0  0  0  0  0  0  0  0
    1.6900    1.4031    0.0000 H   0  0  0  0  0  0  0  0  0  0  0  0
  1  4  1  0  0  0  0
  1  6  1  0  0  0  0
  2  6  1  0  0  0  0
  2  7  1  0  0  0  0
  3  4  1  0  0  0  0
  3  7  1  0  0  0  0
  3 23  1  0  0  0  0
  4  5  1  0  0  0  0
  4 16  1  0  0  0  0
  5  8  1  0  0  0  0
  5 17  1  0  0  0  0
  5 18  1  0  0  0  0
  6  9  1  0  0  0  0
  6 19  1  0  0  0  0
  7 12  1  0  0  0  0
  7 20  1  0  0  0  0
  8 10  1  0  0  0  0
  8 21  1  0  0  0  0
  8 22  1  0  0  0  0
  9 11  1  0  0  0  0
  9 24  1  0  0  0  0
  9 25  1  0  0  0  0
 10 13  1  0  0  0  0
 10 26  1  0  0  0  0
 10 27  1  0  0  0  0
 11 14  1  0  0  0  0
 11 28  1  0  0  0  0
 11 29  1  0  0  0  0
 12 30  1  0  0  0  0
 12 31  1  0  0  0  0
 12 32  1  0  0  0  0
 13 15  1  0  0  0  0
 13 33  1  0  0  0  0
 13 34  1  0  0  0  0
 14 35  1  0  0  0  0
 14 36  1  0  0  0  0
 14 37  1  0  0  0  0
 15 38  1  0  0  0  0
 15 39  1  0  0  0  0
 15 40  1  0  0  0  0
M  END
> <PUBCHEM_COMPOUND_CID>
528751
> <PUBCHEM_COMPOUND_CANONICALIZED>
1
> <PUBCHEM_CACTVS_COMPLEXITY>
164
> <PUBCHEM_CACTVS_HBOND_ACCEPTOR>
3
> <PUBCHEM_CACTVS_HBOND_DONOR>
1
> <PUBCHEM_CACTVS_ROTATABLE_BOND>
6
> <PUBCHEM_CACTVS_SUBSKEYS>
AAADceByAABgAAAAAAAAAAAAAAAAAAAAAAAsAAAAAAAAAAAAAAAAHAQQAAAACADFQASCAALAAAgAAAAAAAAAAQBAABAAAIAIAAAAAAIggAAEAAAAEACgAAEQAAAAAAAAAAAAAAAAAAAAAAAAAAAAAAAAAA==
> <PUBCHEM_IUPAC_OPENEYE_NAME>
4-methyl-6-pentyl-2-propyl-1,3,5-dithiazinane
> <PUBCHEM_IUPAC_CAS_NAME>
4-methyl-6-pentyl-2-propyl-1,3,5-dithiazinane
> <PUBCHEM_IUPAC_NAME_MARKUP>
4-methyl-6-pentyl-2-propyl-1,3,5-dithiazinane
> <PUBCHEM_IUPAC_NAME>
4-methyl-6-pentyl-2-propyl-1,3,5-dithiazinane
> <PUBCHEM_IUPAC_SYSTEMATIC_NAME>
4-methyl-6-pentyl-2-propyl-1,3,5-dithiazinane
> <PUBCHEM_IUPAC_TRADITIONAL_NAME>
4-amyl-6-methyl-2-propyl-1,3,5-dithiazinane
> <PUBCHEM_IUPAC_INCHI>
InChI=1S/C12H25NS2/c1-4-6-7-9-11-13-10(3)14-12(15-11)8-5-2/h10-13H,4-9H2,1-3H3
> <PUBCHEM_IUPAC_INCHIKEY>
RKMPUSJCAKKOPB-UHFFFAOYSA-N
> <PUBCHEM_XLOGP3_AA>
5.3
> <PUBCHEM_EXACT_MASS>
247.14284215
> <PUBCHEM_MOLECULAR_FORMULA>
C12H25NS2
> <PUBCHEM_MOLECULAR_WEIGHT>
247.5
> <PUBCHEM_OPENEYE_CAN_SMILES>
CCCCCC1NC(SC(S1)CCC)C
> <PUBCHEM_OPENEYE_ISO_SMILES>
CCCCCC1NC(SC(S1)CCC)C
> <PUBCHEM_CACTVS_TPSA>
62.6
> <PUBCHEM_MONOISOTOPIC_WEIGHT>
247.14284215
> <PUBCHEM_TOTAL_CHARGE>
0
> <PUBCHEM_HEAVY_ATOM_COUNT>
15
> <PUBCHEM_ATOM_DEF_STEREO_COUNT>
0
> <PUBCHEM_ATOM_UDEF_STEREO_COUNT>
3
> <PUBCHEM_BOND_DEF_STEREO_COUNT>
0
> <PUBCHEM_BOND_UDEF_STEREO_COUNT>
0
> <PUBCHEM_ISOTOPIC_ATOM_COUNT>
0
> <PUBCHEM_COMPONENT_COUNT>
1
> <PUBCHEM_CACTVS_TAUTO_COUNT>
-1
> <PUBCHEM_COORDINATE_TYPE>
1
5
255
> <PUBCHEM_BONDANNOTATIONS>
4  5  3
6  9  3
7  12  3
$$$$
