528799
  -OEChem-10302200292D
 54 57  0     1  0  0  0  0  0999 V2000
    9.1493    1.4410    0.0000 O   0  0  0  0  0  0  0  0  0  0  0  0
    2.0000   -2.5024    0.0000 O   0  0  0  0  0  0  0  0  0  0  0  0
    7.3931    0.5499    0.0000 C   0  0  3  0  0  0  0  0  0  0  0  0
    7.3931   -0.4501    0.0000 C   0  0  3  0  0  0  0  0  0  0  0  0
    6.5271   -0.9501    0.0000 C   0  0  3  0  0  0  0  0  0  0  0  0
    5.6610   -0.4501    0.0000 C   0  0  3  0  0  0  0  0  0  0  0  0
    8.3393    0.8547    0.0000 C   0  0  3  0  0  0  0  0  0  0  0  0
    4.7510   -0.9569    0.0000 C   0  0  3  0  0  0  0  0  0  0  0  0
    6.5271    1.0499    0.0000 C   0  0  0  0  0  0  0  0  0  0  0  0
    8.3393   -0.7548    0.0000 C   0  0  0  0  0  0  0  0  0  0  0  0
    5.6610    0.5499    0.0000 C   0  0  0  0  0  0  0  0  0  0  0  0
    8.9229    0.0499    0.0000 C   0  0  0  0  0  0  0  0  0  0  0  0
    6.5431   -1.9916    0.0000 C   0  0  0  0  0  0  0  0  0  0  0  0
    4.7430   -1.9985    0.0000 C   0  0  3  0  0  0  0  0  0  0  0  0
    5.6451   -2.5193    0.0000 C   0  0  0  0  0  0  0  0  0  0  0  0
    7.3931    1.5499    0.0000 C   0  0  0  0  0  0  0  0  0  0  0  0
    3.8242   -0.3928    0.0000 C   0  0  0  0  0  0  0  0  0  0  0  0
    8.0319    1.8062    0.0000 C   0  0  0  0  0  0  0  0  0  0  0  0
    3.8076   -2.5482    0.0000 C   0  0  0  0  0  0  0  0  0  0  0  0
    2.8763   -0.9208    0.0000 C   0  0  0  0  0  0  0  0  0  0  0  0
    2.8680   -2.0057    0.0000 C   0  0  0  0  0  0  0  0  0  0  0  0
    8.7023    2.5482    0.0000 C   0  0  0  0  0  0  0  0  0  0  0  0
    7.4587   -1.0666    0.0000 H   0  0  0  0  0  0  0  0  0  0  0  0
    7.0664   -1.2559    0.0000 H   0  0  0  0  0  0  0  0  0  0  0  0
    6.1980   -0.1401    0.0000 H   0  0  0  0  0  0  0  0  0  0  0  0
    4.7630   -0.3370    0.0000 H   0  0  0  0  0  0  0  0  0  0  0  0
    6.9256    1.5249    0.0000 H   0  0  0  0  0  0  0  0  0  0  0  0
    6.1285    1.5249    0.0000 H   0  0  0  0  0  0  0  0  0  0  0  0
    8.0883   -1.3217    0.0000 H   0  0  0  0  0  0  0  0  0  0  0  0
    8.8767   -1.0640    0.0000 H   0  0  0  0  0  0  0  0  0  0  0  0
    5.4490    1.1325    0.0000 H   0  0  0  0  0  0  0  0  0  0  0  0
    5.0504    0.4423    0.0000 H   0  0  0  0  0  0  0  0  0  0  0  0
    9.3838   -0.3648    0.0000 H   0  0  0  0  0  0  0  0  0  0  0  0
    9.3838    0.4647    0.0000 H   0  0  0  0  0  0  0  0  0  0  0  0
    6.7612   -2.5720    0.0000 H   0  0  0  0  0  0  0  0  0  0  0  0
    7.1523   -1.8761    0.0000 H   0  0  0  0  0  0  0  0  0  0  0  0
    4.7454   -2.6185    0.0000 H   0  0  0  0  0  0  0  0  0  0  0  0
    5.2478   -2.9953    0.0000 H   0  0  0  0  0  0  0  0  0  0  0  0
    6.0460   -2.9922    0.0000 H   0  0  0  0  0  0  0  0  0  0  0  0
    8.0131    1.5499    0.0000 H   0  0  0  0  0  0  0  0  0  0  0  0
    7.3931    2.1699    0.0000 H   0  0  0  0  0  0  0  0  0  0  0  0
    6.7731    1.5499    0.0000 H   0  0  0  0  0  0  0  0  0  0  0  0
    4.2324    0.0738    0.0000 H   0  0  0  0  0  0  0  0  0  0  0  0
    3.4343    0.0892    0.0000 H   0  0  0  0  0  0  0  0  0  0  0  0
    7.6511    2.2955    0.0000 H   0  0  0  0  0  0  0  0  0  0  0  0
    7.4840    1.5161    0.0000 H   0  0  0  0  0  0  0  0  0  0  0  0
    3.4103   -3.0242    0.0000 H   0  0  0  0  0  0  0  0  0  0  0  0
    4.2085   -3.0211    0.0000 H   0  0  0  0  0  0  0  0  0  0  0  0
    2.6718   -0.3355    0.0000 H   0  0  0  0  0  0  0  0  0  0  0  0
    2.2647   -1.0222    0.0000 H   0  0  0  0  0  0  0  0  0  0  0  0
    9.7153    1.1879    0.0000 H   0  0  0  0  0  0  0  0  0  0  0  0
    9.1624    2.1326    0.0000 H   0  0  0  0  0  0  0  0  0  0  0  0
    9.1180    3.0083    0.0000 H   0  0  0  0  0  0  0  0  0  0  0  0
    8.2423    2.9639    0.0000 H   0  0  0  0  0  0  0  0  0  0  0  0
  1  7  1  0  0  0  0
  1 51  1  0  0  0  0
  2 21  2  0  0  0  0
  3  4  1  0  0  0  0
  3  7  1  0  0  0  0
  3  9  1  0  0  0  0
  3 16  1  0  0  0  0
  4  5  1  0  0  0  0
  4 10  1  0  0  0  0
  4 23  1  0  0  0  0
  5  6  1  0  0  0  0
  5 13  1  0  0  0  0
  5 24  1  0  0  0  0
  6  8  1  0  0  0  0
  6 11  1  0  0  0  0
  6 25  1  0  0  0  0
  7 12  1  0  0  0  0
  7 18  1  0  0  0  0
  8 14  1  0  0  0  0
  8 17  1  0  0  0  0
  8 26  1  0  0  0  0
  9 11  1  0  0  0  0
  9 27  1  0  0  0  0
  9 28  1  0  0  0  0
 10 12  1  0  0  0  0
 10 29  1  0  0  0  0
 10 30  1  0  0  0  0
 11 31  1  0  0  0  0
 11 32  1  0  0  0  0
 12 33  1  0  0  0  0
 12 34  1  0  0  0  0
 13 15  1  0  0  0  0
 13 35  1  0  0  0  0
 13 36  1  0  0  0  0
 14 15  1  0  0  0  0
 14 19  1  0  0  0  0
 14 37  1  0  0  0  0
 15 38  1  0  0  0  0
 15 39  1  0  0  0  0
 16 40  1  0  0  0  0
 16 41  1  0  0  0  0
 16 42  1  0  0  0  0
 17 20  1  0  0  0  0
 17 43  1  0  0  0  0
 17 44  1  0  0  0  0
 18 22  1  0  0  0  0
 18 45  1  0  0  0  0
 18 46  1  0  0  0  0
 19 21  1  0  0  0  0
 19 47  1  0  0  0  0
 19 48  1  0  0  0  0
 20 21  1  0  0  0  0
 20 49  1  0  0  0  0
 20 50  1  0  0  0  0
 22 52  1  0  0  0  0
 22 53  1  0  0  0  0
 22 54  1  0  0  0  0
M  END
> <PUBCHEM_COMPOUND_CID>
528799
> <PUBCHEM_COMPOUND_CANONICALIZED>
1
> <PUBCHEM_CACTVS_COMPLEXITY>
472
> <PUBCHEM_CACTVS_HBOND_ACCEPTOR>
2
> <PUBCHEM_CACTVS_HBOND_DONOR>
1
> <PUBCHEM_CACTVS_ROTATABLE_BOND>
1
> <PUBCHEM_CACTVS_SUBSKEYS>
AAADcfB4MAAAAAAAAAAAAAAAAAAAAYAAAAAwYMAAAAAAAGDAAAAAGgAACAAAD0SAgAACAAAAAgAIAIAQAAAAAAAAAAAAAAEAAAAAABIAAAAAQAAEAAAAAAGIyPCPgAAAAAAAAACAAAQAACAAAYAADAAAAA==
> <PUBCHEM_IUPAC_OPENEYE_NAME>
17-ethyl-17-hydroxy-13-methyl-1,2,4,5,6,7,8,9,10,11,12,14,15,16-tetradecahydrocyclopenta[a]phenanthren-3-one
> <PUBCHEM_IUPAC_CAS_NAME>
17-ethyl-17-hydroxy-13-methyl-1,2,4,5,6,7,8,9,10,11,12,14,15,16-tetradecahydrocyclopenta[a]phenanthren-3-one
> <PUBCHEM_IUPAC_NAME_MARKUP>
17-ethyl-17-hydroxy-13-methyl-1,2,4,5,6,7,8,9,10,11,12,14,15,16-tetradecahydrocyclopenta[a]phenanthren-3-one
> <PUBCHEM_IUPAC_NAME>
17-ethyl-17-hydroxy-13-methyl-1,2,4,5,6,7,8,9,10,11,12,14,15,16-tetradecahydrocyclopenta[a]phenanthren-3-one
> <PUBCHEM_IUPAC_SYSTEMATIC_NAME>
17-ethyl-13-methyl-17-oxidanyl-1,2,4,5,6,7,8,9,10,11,12,14,15,16-tetradecahydrocyclopenta[a]phenanthren-3-one
> <PUBCHEM_IUPAC_TRADITIONAL_NAME>
17-ethyl-17-hydroxy-13-methyl-1,2,4,5,6,7,8,9,10,11,12,14,15,16-tetradecahydrocyclopenta[a]phenanthren-3-one
> <PUBCHEM_IUPAC_INCHI>
InChI=1S/C20H32O2/c1-3-20(22)11-9-18-17-6-4-13-12-14(21)5-7-15(13)16(17)8-10-19(18,20)2/h13,15-18,22H,3-12H2,1-2H3
> <PUBCHEM_IUPAC_INCHIKEY>
IOLODVBMNDJVOP-UHFFFAOYSA-N
> <PUBCHEM_XLOGP3_AA>
4.1
> <PUBCHEM_EXACT_MASS>
304.240230259
> <PUBCHEM_MOLECULAR_FORMULA>
C20H32O2
> <PUBCHEM_MOLECULAR_WEIGHT>
304.5
> <PUBCHEM_OPENEYE_CAN_SMILES>
CCC1(CCC2C1(CCC3C2CCC4C3CCC(=O)C4)C)O
> <PUBCHEM_OPENEYE_ISO_SMILES>
CCC1(CCC2C1(CCC3C2CCC4C3CCC(=O)C4)C)O
> <PUBCHEM_CACTVS_TPSA>
37.3
> <PUBCHEM_MONOISOTOPIC_WEIGHT>
304.240230259
> <PUBCHEM_TOTAL_CHARGE>
0
> <PUBCHEM_HEAVY_ATOM_COUNT>
22
> <PUBCHEM_ATOM_DEF_STEREO_COUNT>
0
> <PUBCHEM_ATOM_UDEF_STEREO_COUNT>
7
> <PUBCHEM_BOND_DEF_STEREO_COUNT>
0
> <PUBCHEM_BOND_UDEF_STEREO_COUNT>
0
> <PUBCHEM_ISOTOPIC_ATOM_COUNT>
0
> <PUBCHEM_COMPONENT_COUNT>
1
> <PUBCHEM_CACTVS_TAUTO_COUNT>
-1
> <PUBCHEM_COORDINATE_TYPE>
1
5
255
> <PUBCHEM_BONDANNOTATIONS>
7  1  3
14  15  3
3  16  3
4  10  3
5  13  3
6  11  3
8  17  3
$$$$
