528733
  -OEChem-10302200292D
 82 83  0     1  0  0  0  0  0999 V2000
    6.3301   -2.3170    0.0000 Si  0  0  0  0  0  0  0  0  0  0  0  0
    9.7942   -4.3170    0.0000 Si  0  0  0  0  0  0  0  0  0  0  0  0
    4.5981    5.6830    0.0000 F   0  0  0  0  0  0  0  0  0  0  0  0
    5.5981    4.6830    0.0000 F   0  0  0  0  0  0  0  0  0  0  0  0
    3.5981    4.6830    0.0000 F   0  0  0  0  0  0  0  0  0  0  0  0
    2.0000    1.1830    0.0000 F   0  0  0  0  0  0  0  0  0  0  0  0
    3.3660    0.8170    0.0000 F   0  0  0  0  0  0  0  0  0  0  0  0
    2.3660    2.5490    0.0000 F   0  0  0  0  0  0  0  0  0  0  0  0
    6.3301   -1.3170    0.0000 O   0  0  0  0  0  0  0  0  0  0  0  0
    8.9282   -3.8170    0.0000 O   0  0  0  0  0  0  0  0  0  0  0  0
    7.1962    2.1830    0.0000 O   0  0  0  0  0  0  0  0  0  0  0  0
    6.3301    0.6830    0.0000 N   0  0  0  0  0  0  0  0  0  0  0  0
    6.3301   -3.3170    0.0000 C   0  0  0  0  0  0  0  0  0  0  0  0
   10.6603   -4.8170    0.0000 C   0  0  0  0  0  0  0  0  0  0  0  0
    6.3301   -4.3170    0.0000 C   0  0  0  0  0  0  0  0  0  0  0  0
    5.3301   -3.3170    0.0000 C   0  0  0  0  0  0  0  0  0  0  0  0
    7.3301   -3.3170    0.0000 C   0  0  0  0  0  0  0  0  0  0  0  0
    5.3301   -2.3170    0.0000 C   0  0  0  0  0  0  0  0  0  0  0  0
    7.3301   -2.3170    0.0000 C   0  0  0  0  0  0  0  0  0  0  0  0
    7.1962   -0.8170    0.0000 C   0  0  3  0  0  0  0  0  0  0  0  0
   11.5263   -5.3170    0.0000 C   0  0  0  0  0  0  0  0  0  0  0  0
   10.1603   -5.6830    0.0000 C   0  0  0  0  0  0  0  0  0  0  0  0
   11.1603   -3.9510    0.0000 C   0  0  0  0  0  0  0  0  0  0  0  0
    9.2942   -5.1830    0.0000 C   0  0  0  0  0  0  0  0  0  0  0  0
   10.2942   -3.4510    0.0000 C   0  0  0  0  0  0  0  0  0  0  0  0
    8.0622   -1.3170    0.0000 C   0  0  0  0  0  0  0  0  0  0  0  0
    7.1962    0.1830    0.0000 C   0  0  0  0  0  0  0  0  0  0  0  0
    8.9282   -2.8170    0.0000 C   0  0  0  0  0  0  0  0  0  0  0  0
    8.0622   -2.3170    0.0000 C   0  0  0  0  0  0  0  0  0  0  0  0
    8.9282   -0.8170    0.0000 C   0  0  0  0  0  0  0  0  0  0  0  0
    9.7942   -2.3170    0.0000 C   0  0  0  0  0  0  0  0  0  0  0  0
    9.7942   -1.3170    0.0000 C   0  0  0  0  0  0  0  0  0  0  0  0
    6.3301    1.6830    0.0000 C   0  0  0  0  0  0  0  0  0  0  0  0
    5.4641    2.1830    0.0000 C   0  0  0  0  0  0  0  0  0  0  0  0
    4.5981    1.6830    0.0000 C   0  0  0  0  0  0  0  0  0  0  0  0
    5.4641    3.1830    0.0000 C   0  0  0  0  0  0  0  0  0  0  0  0
    3.7320    2.1830    0.0000 C   0  0  0  0  0  0  0  0  0  0  0  0
    4.5981    3.6830    0.0000 C   0  0  0  0  0  0  0  0  0  0  0  0
    3.7320    3.1830    0.0000 C   0  0  0  0  0  0  0  0  0  0  0  0
    4.5981    4.6830    0.0000 C   0  0  0  0  0  0  0  0  0  0  0  0
    2.8660    1.6830    0.0000 C   0  0  0  0  0  0  0  0  0  0  0  0
    5.7101   -4.3170    0.0000 H   0  0  0  0  0  0  0  0  0  0  0  0
    6.3301   -4.9370    0.0000 H   0  0  0  0  0  0  0  0  0  0  0  0
    6.9501   -4.3170    0.0000 H   0  0  0  0  0  0  0  0  0  0  0  0
    5.3301   -2.6970    0.0000 H   0  0  0  0  0  0  0  0  0  0  0  0
    4.7101   -3.3170    0.0000 H   0  0  0  0  0  0  0  0  0  0  0  0
    5.3301   -3.9370    0.0000 H   0  0  0  0  0  0  0  0  0  0  0  0
    7.3301   -3.9370    0.0000 H   0  0  0  0  0  0  0  0  0  0  0  0
    7.9501   -3.3170    0.0000 H   0  0  0  0  0  0  0  0  0  0  0  0
    7.3301   -2.6970    0.0000 H   0  0  0  0  0  0  0  0  0  0  0  0
    5.3301   -1.6970    0.0000 H   0  0  0  0  0  0  0  0  0  0  0  0
    4.7101   -2.3170    0.0000 H   0  0  0  0  0  0  0  0  0  0  0  0
    5.3301   -2.9370    0.0000 H   0  0  0  0  0  0  0  0  0  0  0  0
    7.3301   -2.9370    0.0000 H   0  0  0  0  0  0  0  0  0  0  0  0
    7.9501   -2.3170    0.0000 H   0  0  0  0  0  0  0  0  0  0  0  0
    7.3301   -1.6970    0.0000 H   0  0  0  0  0  0  0  0  0  0  0  0
    6.6592   -0.5070    0.0000 H   0  0  0  0  0  0  0  0  0  0  0  0
   11.2163   -5.8539    0.0000 H   0  0  0  0  0  0  0  0  0  0  0  0
   12.0632   -5.6270    0.0000 H   0  0  0  0  0  0  0  0  0  0  0  0
   11.8363   -4.7800    0.0000 H   0  0  0  0  0  0  0  0  0  0  0  0
    9.6233   -5.3730    0.0000 H   0  0  0  0  0  0  0  0  0  0  0  0
    9.8503   -6.2200    0.0000 H   0  0  0  0  0  0  0  0  0  0  0  0
   10.6972   -5.9930    0.0000 H   0  0  0  0  0  0  0  0  0  0  0  0
   11.6972   -4.2610    0.0000 H   0  0  0  0  0  0  0  0  0  0  0  0
   11.4703   -3.4140    0.0000 H   0  0  0  0  0  0  0  0  0  0  0  0
   10.6233   -3.6410    0.0000 H   0  0  0  0  0  0  0  0  0  0  0  0
    8.7573   -4.8730    0.0000 H   0  0  0  0  0  0  0  0  0  0  0  0
    8.9842   -5.7200    0.0000 H   0  0  0  0  0  0  0  0  0  0  0  0
    9.8312   -5.4930    0.0000 H   0  0  0  0  0  0  0  0  0  0  0  0
   10.8312   -3.7610    0.0000 H   0  0  0  0  0  0  0  0  0  0  0  0
   10.6042   -2.9140    0.0000 H   0  0  0  0  0  0  0  0  0  0  0  0
    9.7573   -3.1410    0.0000 H   0  0  0  0  0  0  0  0  0  0  0  0
    7.8067    0.0754    0.0000 H   0  0  0  0  0  0  0  0  0  0  0  0
    7.4082    0.7656    0.0000 H   0  0  0  0  0  0  0  0  0  0  0  0
    7.5252   -2.6270    0.0000 H   0  0  0  0  0  0  0  0  0  0  0  0
    8.9282   -0.1970    0.0000 H   0  0  0  0  0  0  0  0  0  0  0  0
   10.3312   -2.6270    0.0000 H   0  0  0  0  0  0  0  0  0  0  0  0
    5.7932    0.3730    0.0000 H   0  0  0  0  0  0  0  0  0  0  0  0
   10.3312   -1.0070    0.0000 H   0  0  0  0  0  0  0  0  0  0  0  0
    4.5981    1.0630    0.0000 H   0  0  0  0  0  0  0  0  0  0  0  0
    6.0010    3.4930    0.0000 H   0  0  0  0  0  0  0  0  0  0  0  0
    3.1951    3.4930    0.0000 H   0  0  0  0  0  0  0  0  0  0  0  0
  1  9  1  0  0  0  0
  1 13  1  0  0  0  0
  1 18  1  0  0  0  0
  1 19  1  0  0  0  0
  2 10  1  0  0  0  0
  2 14  1  0  0  0  0
  2 24  1  0  0  0  0
  2 25  1  0  0  0  0
  3 40  1  0  0  0  0
  4 40  1  0  0  0  0
  5 40  1  0  0  0  0
  6 41  1  0  0  0  0
  7 41  1  0  0  0  0
  8 41  1  0  0  0  0
  9 20  1  0  0  0  0
 10 28  1  0  0  0  0
 11 33  2  0  0  0  0
 12 27  1  0  0  0  0
 12 33  1  0  0  0  0
 12 78  1  0  0  0  0
 13 15  1  0  0  0  0
 13 16  1  0  0  0  0
 13 17  1  0  0  0  0
 14 21  1  0  0  0  0
 14 22  1  0  0  0  0
 14 23  1  0  0  0  0
 15 42  1  0  0  0  0
 15 43  1  0  0  0  0
 15 44  1  0  0  0  0
 16 45  1  0  0  0  0
 16 46  1  0  0  0  0
 16 47  1  0  0  0  0
 17 48  1  0  0  0  0
 17 49  1  0  0  0  0
 17 50  1  0  0  0  0
 18 51  1  0  0  0  0
 18 52  1  0  0  0  0
 18 53  1  0  0  0  0
 19 54  1  0  0  0  0
 19 55  1  0  0  0  0
 19 56  1  0  0  0  0
 20 26  1  0  0  0  0
 20 27  1  0  0  0  0
 20 57  1  0  0  0  0
 21 58  1  0  0  0  0
 21 59  1  0  0  0  0
 21 60  1  0  0  0  0
 22 61  1  0  0  0  0
 22 62  1  0  0  0  0
 22 63  1  0  0  0  0
 23 64  1  0  0  0  0
 23 65  1  0  0  0  0
 23 66  1  0  0  0  0
 24 67  1  0  0  0  0
 24 68  1  0  0  0  0
 24 69  1  0  0  0  0
 25 70  1  0  0  0  0
 25 71  1  0  0  0  0
 25 72  1  0  0  0  0
 26 29  2  0  0  0  0
 26 30  1  0  0  0  0
 27 73  1  0  0  0  0
 27 74  1  0  0  0  0
 28 29  1  0  0  0  0
 28 31  2  0  0  0  0
 29 75  1  0  0  0  0
 30 32  2  0  0  0  0
 30 76  1  0  0  0  0
 31 32  1  0  0  0  0
 31 77  1  0  0  0  0
 32 79  1  0  0  0  0
 33 34  1  0  0  0  0
 34 35  2  0  0  0  0
 34 36  1  0  0  0  0
 35 37  1  0  0  0  0
 35 80  1  0  0  0  0
 36 38  2  0  0  0  0
 36 81  1  0  0  0  0
 37 39  2  0  0  0  0
 37 41  1  0  0  0  0
 38 39  1  0  0  0  0
 38 40  1  0  0  0  0
 39 82  1  0  0  0  0
M  END
> <PUBCHEM_COMPOUND_CID>
528733
> <PUBCHEM_COMPOUND_CANONICALIZED>
1
> <PUBCHEM_CACTVS_COMPLEXITY>
858
> <PUBCHEM_CACTVS_HBOND_ACCEPTOR>
9
> <PUBCHEM_CACTVS_HBOND_DONOR>
1
> <PUBCHEM_CACTVS_ROTATABLE_BOND>
10
> <PUBCHEM_CACTVS_SUBSKEYS>
AAADcfB6McwAAAAAAAAAAAAAAAAAAAAAAAAwYAAAAAAAAAABQAAAHxAQAEAADBThuBZyBoLAAAGIAiFSEACCAAAkIAAIiIEODMgKJjKAlROEMQhk1hGYiYfY2PKOAAADAAAAAAAAAAYAAAAAAAAAAAAAAA==
> <PUBCHEM_IUPAC_OPENEYE_NAME>
N-[2-[tert-butyl(dimethyl)silyl]oxy-2-[3-[tert-butyl(dimethyl)silyl]oxyphenyl]ethyl]-3,5-bis(trifluoromethyl)benzamide
> <PUBCHEM_IUPAC_CAS_NAME>
N-[2-[tert-butyl(dimethyl)silyl]oxy-2-[3-[tert-butyl(dimethyl)silyl]oxyphenyl]ethyl]-3,5-bis(trifluoromethyl)benzamide
> <PUBCHEM_IUPAC_NAME_MARKUP>
<I>N</I>-[2-[<I>tert</I>-butyl(dimethyl)silyl]oxy-2-[3-[<I>tert</I>-butyl(dimethyl)silyl]oxyphenyl]ethyl]-3,5-bis(trifluoromethyl)benzamide
> <PUBCHEM_IUPAC_NAME>
N-[2-[tert-butyl(dimethyl)silyl]oxy-2-[3-[tert-butyl(dimethyl)silyl]oxyphenyl]ethyl]-3,5-bis(trifluoromethyl)benzamide
> <PUBCHEM_IUPAC_SYSTEMATIC_NAME>
N-[2-[tert-butyl(dimethyl)silyl]oxy-2-[3-[tert-butyl(dimethyl)silyl]oxyphenyl]ethyl]-3,5-bis(trifluoromethyl)benzamide
> <PUBCHEM_IUPAC_TRADITIONAL_NAME>
N-[2-[tert-butyl(dimethyl)silyl]oxy-2-[3-[tert-butyl(dimethyl)silyl]oxyphenyl]ethyl]-3,5-bis(trifluoromethyl)benzamide
> <PUBCHEM_IUPAC_INCHI>
InChI=1S/C29H41F6NO3Si2/c1-26(2,3)40(7,8)38-23-13-11-12-19(16-23)24(39-41(9,10)27(4,5)6)18-36-25(37)20-14-21(28(30,31)32)17-22(15-20)29(33,34)35/h11-17,24H,18H2,1-10H3,(H,36,37)
> <PUBCHEM_IUPAC_INCHIKEY>
OBGFFTDPWXNZAM-UHFFFAOYSA-N
> <PUBCHEM_EXACT_MASS>
621.25291621
> <PUBCHEM_MOLECULAR_FORMULA>
C29H41F6NO3Si2
> <PUBCHEM_MOLECULAR_WEIGHT>
621.8
> <PUBCHEM_OPENEYE_CAN_SMILES>
CC(C)(C)[Si](C)(C)OC1=CC=CC(=C1)C(CNC(=O)C2=CC(=CC(=C2)C(F)(F)F)C(F)(F)F)O[Si](C)(C)C(C)(C)C
> <PUBCHEM_OPENEYE_ISO_SMILES>
CC(C)(C)[Si](C)(C)OC1=CC=CC(=C1)C(CNC(=O)C2=CC(=CC(=C2)C(F)(F)F)C(F)(F)F)O[Si](C)(C)C(C)(C)C
> <PUBCHEM_CACTVS_TPSA>
47.6
> <PUBCHEM_MONOISOTOPIC_WEIGHT>
621.25291621
> <PUBCHEM_TOTAL_CHARGE>
0
> <PUBCHEM_HEAVY_ATOM_COUNT>
41
> <PUBCHEM_ATOM_DEF_STEREO_COUNT>
0
> <PUBCHEM_ATOM_UDEF_STEREO_COUNT>
1
> <PUBCHEM_BOND_DEF_STEREO_COUNT>
0
> <PUBCHEM_BOND_UDEF_STEREO_COUNT>
0
> <PUBCHEM_ISOTOPIC_ATOM_COUNT>
0
> <PUBCHEM_COMPONENT_COUNT>
1
> <PUBCHEM_CACTVS_TAUTO_COUNT>
-1
> <PUBCHEM_COORDINATE_TYPE>
1
5
255
> <PUBCHEM_BONDANNOTATIONS>
20  27  3
26  29  8
26  30  8
28  29  8
28  31  8
30  32  8
31  32  8
34  35  8
34  36  8
35  37  8
36  38  8
37  39  8
38  39  8
$$$$
