528750
  -OEChem-10302200292D
 34 34  0     1  0  0  0  0  0999 V2000
    2.8660    1.1900    0.0000 S   0  0  0  0  0  0  0  0  0  0  0  0
    4.5981    1.1900    0.0000 S   0  0  0  0  0  0  0  0  0  0  0  0
    3.7320    2.6900    0.0000 N   0  0  0  0  0  0  0  0  0  0  0  0
    3.7320    0.6900    0.0000 C   0  0  0  0  0  0  0  0  0  0  0  0
    3.7320   -0.3100    0.0000 C   0  0  0  0  0  0  0  0  0  0  0  0
    2.8660   -0.8100    0.0000 C   0  0  0  0  0  0  0  0  0  0  0  0
    2.8660    2.1900    0.0000 C   0  0  3  0  0  0  0  0  0  0  0  0
    4.5981    2.1900    0.0000 C   0  0  3  0  0  0  0  0  0  0  0  0
    2.8660   -1.8100    0.0000 C   0  0  0  0  0  0  0  0  0  0  0  0
    2.0000   -2.3100    0.0000 C   0  0  0  0  0  0  0  0  0  0  0  0
    2.0000    2.6900    0.0000 C   0  0  0  0  0  0  0  0  0  0  0  0
    5.4641    2.6900    0.0000 C   0  0  0  0  0  0  0  0  0  0  0  0
    2.0000   -3.3100    0.0000 C   0  0  0  0  0  0  0  0  0  0  0  0
    4.2690    0.3800    0.0000 H   0  0  0  0  0  0  0  0  0  0  0  0
    3.9441   -0.8926    0.0000 H   0  0  0  0  0  0  0  0  0  0  0  0
    4.3426   -0.2023    0.0000 H   0  0  0  0  0  0  0  0  0  0  0  0
    2.6540   -0.2274    0.0000 H   0  0  0  0  0  0  0  0  0  0  0  0
    2.2554   -0.9177    0.0000 H   0  0  0  0  0  0  0  0  0  0  0  0
    2.8660    2.8100    0.0000 H   0  0  0  0  0  0  0  0  0  0  0  0
    4.5981    2.8100    0.0000 H   0  0  0  0  0  0  0  0  0  0  0  0
    3.0781   -2.3926    0.0000 H   0  0  0  0  0  0  0  0  0  0  0  0
    3.4766   -1.7023    0.0000 H   0  0  0  0  0  0  0  0  0  0  0  0
    3.7320    3.3100    0.0000 H   0  0  0  0  0  0  0  0  0  0  0  0
    1.7880   -1.7274    0.0000 H   0  0  0  0  0  0  0  0  0  0  0  0
    1.3894   -2.4177    0.0000 H   0  0  0  0  0  0  0  0  0  0  0  0
    2.3100    3.2269    0.0000 H   0  0  0  0  0  0  0  0  0  0  0  0
    1.4631    3.0000    0.0000 H   0  0  0  0  0  0  0  0  0  0  0  0
    1.6900    2.1531    0.0000 H   0  0  0  0  0  0  0  0  0  0  0  0
    5.7741    2.1531    0.0000 H   0  0  0  0  0  0  0  0  0  0  0  0
    6.0010    3.0000    0.0000 H   0  0  0  0  0  0  0  0  0  0  0  0
    5.1541    3.2269    0.0000 H   0  0  0  0  0  0  0  0  0  0  0  0
    1.3800   -3.3100    0.0000 H   0  0  0  0  0  0  0  0  0  0  0  0
    2.0000   -3.9300    0.0000 H   0  0  0  0  0  0  0  0  0  0  0  0
    2.6200   -3.3100    0.0000 H   0  0  0  0  0  0  0  0  0  0  0  0
  1  4  1  0  0  0  0
  1  7  1  0  0  0  0
  2  4  1  0  0  0  0
  2  8  1  0  0  0  0
  3  7  1  0  0  0  0
  3  8  1  0  0  0  0
  3 23  1  0  0  0  0
  4  5  1  0  0  0  0
  4 14  1  0  0  0  0
  5  6  1  0  0  0  0
  5 15  1  0  0  0  0
  5 16  1  0  0  0  0
  6  9  1  0  0  0  0
  6 17  1  0  0  0  0
  6 18  1  0  0  0  0
  7 11  1  0  0  0  0
  7 19  1  0  0  0  0
  8 12  1  0  0  0  0
  8 20  1  0  0  0  0
  9 10  1  0  0  0  0
  9 21  1  0  0  0  0
  9 22  1  0  0  0  0
 10 13  1  0  0  0  0
 10 24  1  0  0  0  0
 10 25  1  0  0  0  0
 11 26  1  0  0  0  0
 11 27  1  0  0  0  0
 11 28  1  0  0  0  0
 12 29  1  0  0  0  0
 12 30  1  0  0  0  0
 12 31  1  0  0  0  0
 13 32  1  0  0  0  0
 13 33  1  0  0  0  0
 13 34  1  0  0  0  0
M  END
> <PUBCHEM_COMPOUND_CID>
528750
> <PUBCHEM_COMPOUND_CANONICALIZED>
1
> <PUBCHEM_CACTVS_COMPLEXITY>
131
> <PUBCHEM_CACTVS_HBOND_ACCEPTOR>
3
> <PUBCHEM_CACTVS_HBOND_DONOR>
1
> <PUBCHEM_CACTVS_ROTATABLE_BOND>
4
> <PUBCHEM_CACTVS_SUBSKEYS>
AAADceByAABgAAAAAAAAAAAAAAAAAAAAAAAsAAAAAAAAAAAAAAAAHAQQAAAACADFQASCAALAAAgAAAAAAAAAAQBAABAAAIAIAAAAAAIgAAAAAAAAEACgAAEAAAAAAAAAAAAAAAAAAAAAAAAAAAAAAAAAAA==
> <PUBCHEM_IUPAC_OPENEYE_NAME>
4,6-dimethyl-2-pentyl-1,3,5-dithiazinane
> <PUBCHEM_IUPAC_CAS_NAME>
4,6-dimethyl-2-pentyl-1,3,5-dithiazinane
> <PUBCHEM_IUPAC_NAME_MARKUP>
4,6-dimethyl-2-pentyl-1,3,5-dithiazinane
> <PUBCHEM_IUPAC_NAME>
4,6-dimethyl-2-pentyl-1,3,5-dithiazinane
> <PUBCHEM_IUPAC_SYSTEMATIC_NAME>
4,6-dimethyl-2-pentyl-1,3,5-dithiazinane
> <PUBCHEM_IUPAC_TRADITIONAL_NAME>
2-amyl-4,6-dimethyl-1,3,5-dithiazinane
> <PUBCHEM_IUPAC_INCHI>
InChI=1S/C10H21NS2/c1-4-5-6-7-10-12-8(2)11-9(3)13-10/h8-11H,4-7H2,1-3H3
> <PUBCHEM_IUPAC_INCHIKEY>
MOQYJFGRWHTLRP-UHFFFAOYSA-N
> <PUBCHEM_XLOGP3_AA>
4.4
> <PUBCHEM_EXACT_MASS>
219.11154202
> <PUBCHEM_MOLECULAR_FORMULA>
C10H21NS2
> <PUBCHEM_MOLECULAR_WEIGHT>
219.4
> <PUBCHEM_OPENEYE_CAN_SMILES>
CCCCCC1SC(NC(S1)C)C
> <PUBCHEM_OPENEYE_ISO_SMILES>
CCCCCC1SC(NC(S1)C)C
> <PUBCHEM_CACTVS_TPSA>
62.6
> <PUBCHEM_MONOISOTOPIC_WEIGHT>
219.11154202
> <PUBCHEM_TOTAL_CHARGE>
0
> <PUBCHEM_HEAVY_ATOM_COUNT>
13
> <PUBCHEM_ATOM_DEF_STEREO_COUNT>
0
> <PUBCHEM_ATOM_UDEF_STEREO_COUNT>
2
> <PUBCHEM_BOND_DEF_STEREO_COUNT>
0
> <PUBCHEM_BOND_UDEF_STEREO_COUNT>
0
> <PUBCHEM_ISOTOPIC_ATOM_COUNT>
0
> <PUBCHEM_COMPONENT_COUNT>
1
> <PUBCHEM_CACTVS_TAUTO_COUNT>
-1
> <PUBCHEM_COORDINATE_TYPE>
1
5
255
> <PUBCHEM_BONDANNOTATIONS>
7  11  3
8  12  3
$$$$
