528729
  -OEChem-10302200292D
107108  0     1  0  0  0  0  0999 V2000
    6.3301   -2.3170    0.0000 Si  0  0  0  0  0  0  0  0  0  0  0  0
    9.7942   -4.3170    0.0000 Si  0  0  0  0  0  0  0  0  0  0  0  0
   11.5263   -2.3170    0.0000 Si  0  0  0  0  0  0  0  0  0  0  0  0
    4.5981    5.6830    0.0000 F   0  0  0  0  0  0  0  0  0  0  0  0
    5.5981    4.6830    0.0000 F   0  0  0  0  0  0  0  0  0  0  0  0
    3.5981    4.6830    0.0000 F   0  0  0  0  0  0  0  0  0  0  0  0
    2.0000    1.1830    0.0000 F   0  0  0  0  0  0  0  0  0  0  0  0
    3.3660    0.8170    0.0000 F   0  0  0  0  0  0  0  0  0  0  0  0
    2.3660    2.5490    0.0000 F   0  0  0  0  0  0  0  0  0  0  0  0
    6.3301   -1.3170    0.0000 O   0  0  0  0  0  0  0  0  0  0  0  0
    8.9282   -3.8170    0.0000 O   0  0  0  0  0  0  0  0  0  0  0  0
   10.6603   -2.8170    0.0000 O   0  0  0  0  0  0  0  0  0  0  0  0
    7.1962    2.1830    0.0000 O   0  0  0  0  0  0  0  0  0  0  0  0
    6.3301    0.6830    0.0000 N   0  0  0  0  0  0  0  0  0  0  0  0
    6.3301   -3.3170    0.0000 C   0  0  0  0  0  0  0  0  0  0  0  0
   10.6603   -4.8170    0.0000 C   0  0  0  0  0  0  0  0  0  0  0  0
   12.3923   -1.8170    0.0000 C   0  0  0  0  0  0  0  0  0  0  0  0
    7.1962   -0.8170    0.0000 C   0  0  3  0  0  0  0  0  0  0  0  0
    5.3301   -2.3170    0.0000 C   0  0  0  0  0  0  0  0  0  0  0  0
    7.3301   -2.3170    0.0000 C   0  0  0  0  0  0  0  0  0  0  0  0
    6.3301   -4.3170    0.0000 C   0  0  0  0  0  0  0  0  0  0  0  0
    5.3301   -3.3170    0.0000 C   0  0  0  0  0  0  0  0  0  0  0  0
    7.3301   -3.3170    0.0000 C   0  0  0  0  0  0  0  0  0  0  0  0
    8.0622   -1.3170    0.0000 C   0  0  0  0  0  0  0  0  0  0  0  0
   11.5263   -5.3170    0.0000 C   0  0  0  0  0  0  0  0  0  0  0  0
   10.1603   -5.6830    0.0000 C   0  0  0  0  0  0  0  0  0  0  0  0
   11.1603   -3.9510    0.0000 C   0  0  0  0  0  0  0  0  0  0  0  0
    9.2942   -5.1830    0.0000 C   0  0  0  0  0  0  0  0  0  0  0  0
   10.2942   -3.4510    0.0000 C   0  0  0  0  0  0  0  0  0  0  0  0
    8.9282   -2.8170    0.0000 C   0  0  0  0  0  0  0  0  0  0  0  0
   13.2583   -1.3170    0.0000 C   0  0  0  0  0  0  0  0  0  0  0  0
   12.8923   -2.6830    0.0000 C   0  0  0  0  0  0  0  0  0  0  0  0
   11.8923   -0.9510    0.0000 C   0  0  0  0  0  0  0  0  0  0  0  0
   12.0263   -3.1830    0.0000 C   0  0  0  0  0  0  0  0  0  0  0  0
   11.0263   -1.4510    0.0000 C   0  0  0  0  0  0  0  0  0  0  0  0
    9.7942   -2.3170    0.0000 C   0  0  0  0  0  0  0  0  0  0  0  0
    7.1962    0.1830    0.0000 C   0  0  0  0  0  0  0  0  0  0  0  0
    8.0622   -2.3170    0.0000 C   0  0  0  0  0  0  0  0  0  0  0  0
    8.9282   -0.8170    0.0000 C   0  0  0  0  0  0  0  0  0  0  0  0
    9.7942   -1.3170    0.0000 C   0  0  0  0  0  0  0  0  0  0  0  0
    5.4641    0.1830    0.0000 C   0  0  0  0  0  0  0  0  0  0  0  0
    6.3301    1.6830    0.0000 C   0  0  0  0  0  0  0  0  0  0  0  0
    5.4641    2.1830    0.0000 C   0  0  0  0  0  0  0  0  0  0  0  0
    4.5981    1.6830    0.0000 C   0  0  0  0  0  0  0  0  0  0  0  0
    5.4641    3.1830    0.0000 C   0  0  0  0  0  0  0  0  0  0  0  0
    3.7320    2.1830    0.0000 C   0  0  0  0  0  0  0  0  0  0  0  0
    4.5981    3.6830    0.0000 C   0  0  0  0  0  0  0  0  0  0  0  0
    3.7320    3.1830    0.0000 C   0  0  0  0  0  0  0  0  0  0  0  0
    4.5981    4.6830    0.0000 C   0  0  0  0  0  0  0  0  0  0  0  0
    2.8660    1.6830    0.0000 C   0  0  0  0  0  0  0  0  0  0  0  0
    6.6592   -0.5070    0.0000 H   0  0  0  0  0  0  0  0  0  0  0  0
    5.3301   -1.6970    0.0000 H   0  0  0  0  0  0  0  0  0  0  0  0
    4.7101   -2.3170    0.0000 H   0  0  0  0  0  0  0  0  0  0  0  0
    5.3301   -2.9370    0.0000 H   0  0  0  0  0  0  0  0  0  0  0  0
    7.3301   -2.9370    0.0000 H   0  0  0  0  0  0  0  0  0  0  0  0
    7.9501   -2.3170    0.0000 H   0  0  0  0  0  0  0  0  0  0  0  0
    7.3301   -1.6970    0.0000 H   0  0  0  0  0  0  0  0  0  0  0  0
    5.7101   -4.3170    0.0000 H   0  0  0  0  0  0  0  0  0  0  0  0
    6.3301   -4.9370    0.0000 H   0  0  0  0  0  0  0  0  0  0  0  0
    6.9501   -4.3170    0.0000 H   0  0  0  0  0  0  0  0  0  0  0  0
    5.3301   -2.6970    0.0000 H   0  0  0  0  0  0  0  0  0  0  0  0
    4.7101   -3.3170    0.0000 H   0  0  0  0  0  0  0  0  0  0  0  0
    5.3301   -3.9370    0.0000 H   0  0  0  0  0  0  0  0  0  0  0  0
    7.3301   -3.9370    0.0000 H   0  0  0  0  0  0  0  0  0  0  0  0
    7.9501   -3.3170    0.0000 H   0  0  0  0  0  0  0  0  0  0  0  0
    7.3301   -2.6970    0.0000 H   0  0  0  0  0  0  0  0  0  0  0  0
   11.2163   -5.8539    0.0000 H   0  0  0  0  0  0  0  0  0  0  0  0
   12.0632   -5.6270    0.0000 H   0  0  0  0  0  0  0  0  0  0  0  0
   11.8363   -4.7800    0.0000 H   0  0  0  0  0  0  0  0  0  0  0  0
    9.6233   -5.3730    0.0000 H   0  0  0  0  0  0  0  0  0  0  0  0
    9.8503   -6.2200    0.0000 H   0  0  0  0  0  0  0  0  0  0  0  0
   10.6972   -5.9930    0.0000 H   0  0  0  0  0  0  0  0  0  0  0  0
   11.6972   -4.2610    0.0000 H   0  0  0  0  0  0  0  0  0  0  0  0
   11.4703   -3.4140    0.0000 H   0  0  0  0  0  0  0  0  0  0  0  0
   10.6233   -3.6410    0.0000 H   0  0  0  0  0  0  0  0  0  0  0  0
    8.7573   -4.8730    0.0000 H   0  0  0  0  0  0  0  0  0  0  0  0
    8.9842   -5.7200    0.0000 H   0  0  0  0  0  0  0  0  0  0  0  0
    9.8312   -5.4930    0.0000 H   0  0  0  0  0  0  0  0  0  0  0  0
   10.8312   -3.7610    0.0000 H   0  0  0  0  0  0  0  0  0  0  0  0
   10.6042   -2.9140    0.0000 H   0  0  0  0  0  0  0  0  0  0  0  0
    9.7573   -3.1410    0.0000 H   0  0  0  0  0  0  0  0  0  0  0  0
   13.5683   -1.8539    0.0000 H   0  0  0  0  0  0  0  0  0  0  0  0
   13.7953   -1.0070    0.0000 H   0  0  0  0  0  0  0  0  0  0  0  0
   12.9483   -0.7801    0.0000 H   0  0  0  0  0  0  0  0  0  0  0  0
   12.3554   -2.9930    0.0000 H   0  0  0  0  0  0  0  0  0  0  0  0
   13.2023   -3.2200    0.0000 H   0  0  0  0  0  0  0  0  0  0  0  0
   13.4292   -2.3730    0.0000 H   0  0  0  0  0  0  0  0  0  0  0  0
   12.4292   -0.6410    0.0000 H   0  0  0  0  0  0  0  0  0  0  0  0
   11.5823   -0.4140    0.0000 H   0  0  0  0  0  0  0  0  0  0  0  0
   11.3554   -1.2610    0.0000 H   0  0  0  0  0  0  0  0  0  0  0  0
   11.4893   -3.4930    0.0000 H   0  0  0  0  0  0  0  0  0  0  0  0
   12.3363   -3.7200    0.0000 H   0  0  0  0  0  0  0  0  0  0  0  0
   12.5632   -2.8730    0.0000 H   0  0  0  0  0  0  0  0  0  0  0  0
   11.5632   -1.1410    0.0000 H   0  0  0  0  0  0  0  0  0  0  0  0
   10.7163   -0.9140    0.0000 H   0  0  0  0  0  0  0  0  0  0  0  0
   10.4893   -1.7610    0.0000 H   0  0  0  0  0  0  0  0  0  0  0  0
    7.8067    0.0754    0.0000 H   0  0  0  0  0  0  0  0  0  0  0  0
    7.4082    0.7656    0.0000 H   0  0  0  0  0  0  0  0  0  0  0  0
    7.5252   -2.6270    0.0000 H   0  0  0  0  0  0  0  0  0  0  0  0
    8.9282   -0.1970    0.0000 H   0  0  0  0  0  0  0  0  0  0  0  0
   10.3312   -1.0070    0.0000 H   0  0  0  0  0  0  0  0  0  0  0  0
    5.1541    0.7199    0.0000 H   0  0  0  0  0  0  0  0  0  0  0  0
    4.9272   -0.1270    0.0000 H   0  0  0  0  0  0  0  0  0  0  0  0
    5.7741   -0.3539    0.0000 H   0  0  0  0  0  0  0  0  0  0  0  0
    4.5981    1.0630    0.0000 H   0  0  0  0  0  0  0  0  0  0  0  0
    6.0010    3.4930    0.0000 H   0  0  0  0  0  0  0  0  0  0  0  0
    3.1951    3.4930    0.0000 H   0  0  0  0  0  0  0  0  0  0  0  0
  1 10  1  0  0  0  0
  1 15  1  0  0  0  0
  1 19  1  0  0  0  0
  1 20  1  0  0  0  0
  2 11  1  0  0  0  0
  2 16  1  0  0  0  0
  2 28  1  0  0  0  0
  2 29  1  0  0  0  0
  3 12  1  0  0  0  0
  3 17  1  0  0  0  0
  3 34  1  0  0  0  0
  3 35  1  0  0  0  0
  4 49  1  0  0  0  0
  5 49  1  0  0  0  0
  6 49  1  0  0  0  0
  7 50  1  0  0  0  0
  8 50  1  0  0  0  0
  9 50  1  0  0  0  0
 10 18  1  0  0  0  0
 11 30  1  0  0  0  0
 12 36  1  0  0  0  0
 13 42  2  0  0  0  0
 14 37  1  0  0  0  0
 14 41  1  0  0  0  0
 14 42  1  0  0  0  0
 15 21  1  0  0  0  0
 15 22  1  0  0  0  0
 15 23  1  0  0  0  0
 16 25  1  0  0  0  0
 16 26  1  0  0  0  0
 16 27  1  0  0  0  0
 17 31  1  0  0  0  0
 17 32  1  0  0  0  0
 17 33  1  0  0  0  0
 18 24  1  0  0  0  0
 18 37  1  0  0  0  0
 18 51  1  0  0  0  0
 19 52  1  0  0  0  0
 19 53  1  0  0  0  0
 19 54  1  0  0  0  0
 20 55  1  0  0  0  0
 20 56  1  0  0  0  0
 20 57  1  0  0  0  0
 21 58  1  0  0  0  0
 21 59  1  0  0  0  0
 21 60  1  0  0  0  0
 22 61  1  0  0  0  0
 22 62  1  0  0  0  0
 22 63  1  0  0  0  0
 23 64  1  0  0  0  0
 23 65  1  0  0  0  0
 23 66  1  0  0  0  0
 24 38  2  0  0  0  0
 24 39  1  0  0  0  0
 25 67  1  0  0  0  0
 25 68  1  0  0  0  0
 25 69  1  0  0  0  0
 26 70  1  0  0  0  0
 26 71  1  0  0  0  0
 26 72  1  0  0  0  0
 27 73  1  0  0  0  0
 27 74  1  0  0  0  0
 27 75  1  0  0  0  0
 28 76  1  0  0  0  0
 28 77  1  0  0  0  0
 28 78  1  0  0  0  0
 29 79  1  0  0  0  0
 29 80  1  0  0  0  0
 29 81  1  0  0  0  0
 30 36  2  0  0  0  0
 30 38  1  0  0  0  0
 31 82  1  0  0  0  0
 31 83  1  0  0  0  0
 31 84  1  0  0  0  0
 32 85  1  0  0  0  0
 32 86  1  0  0  0  0
 32 87  1  0  0  0  0
 33 88  1  0  0  0  0
 33 89  1  0  0  0  0
 33 90  1  0  0  0  0
 34 91  1  0  0  0  0
 34 92  1  0  0  0  0
 34 93  1  0  0  0  0
 35 94  1  0  0  0  0
 35 95  1  0  0  0  0
 35 96  1  0  0  0  0
 36 40  1  0  0  0  0
 37 97  1  0  0  0  0
 37 98  1  0  0  0  0
 38 99  1  0  0  0  0
 39 40  2  0  0  0  0
 39100  1  0  0  0  0
 40101  1  0  0  0  0
 41102  1  0  0  0  0
 41103  1  0  0  0  0
 41104  1  0  0  0  0
 42 43  1  0  0  0  0
 43 44  2  0  0  0  0
 43 45  1  0  0  0  0
 44 46  1  0  0  0  0
 44105  1  0  0  0  0
 45 47  2  0  0  0  0
 45106  1  0  0  0  0
 46 48  2  0  0  0  0
 46 50  1  0  0  0  0
 47 48  1  0  0  0  0
 47 49  1  0  0  0  0
 48107  1  0  0  0  0
M  END
> <PUBCHEM_COMPOUND_CID>
528729
> <PUBCHEM_COMPOUND_CANONICALIZED>
1
> <PUBCHEM_CACTVS_COMPLEXITY>
1120
> <PUBCHEM_CACTVS_HBOND_ACCEPTOR>
10
> <PUBCHEM_CACTVS_HBOND_DONOR>
0
> <PUBCHEM_CACTVS_ROTATABLE_BOND>
13
> <PUBCHEM_CACTVS_SUBSKEYS>
AAADcfB+OcwAAAAAAAAAAAAAAAAAAAAAAAAwYAAAAAAAAAABQAAAHxAAAEAADBThuBZyBoMAAAGIAiFSEACCAAAkIAAIiAEOjMgLJjKAlROEMQhkxhGYiYfY+PaOIAADAAAAQABAAAYAAACAAAAAAAAAAA==
> <PUBCHEM_IUPAC_OPENEYE_NAME>
N-[2-[3,4-bis[[tert-butyl(dimethyl)silyl]oxy]phenyl]-2-[tert-butyl(dimethyl)silyl]oxy-ethyl]-N-methyl-3,5-bis(trifluoromethyl)benzamide
> <PUBCHEM_IUPAC_CAS_NAME>
N-[2-[3,4-bis[[tert-butyl(dimethyl)silyl]oxy]phenyl]-2-[tert-butyl(dimethyl)silyl]oxyethyl]-N-methyl-3,5-bis(trifluoromethyl)benzamide
> <PUBCHEM_IUPAC_NAME_MARKUP>
<I>N</I>-[2-[3,4-bis[[<I>tert</I>-butyl(dimethyl)silyl]oxy]phenyl]-2-[<I>tert</I>-butyl(dimethyl)silyl]oxyethyl]-<I>N</I>-methyl-3,5-bis(trifluoromethyl)benzamide
> <PUBCHEM_IUPAC_NAME>
N-[2-[3,4-bis[[tert-butyl(dimethyl)silyl]oxy]phenyl]-2-[tert-butyl(dimethyl)silyl]oxyethyl]-N-methyl-3,5-bis(trifluoromethyl)benzamide
> <PUBCHEM_IUPAC_SYSTEMATIC_NAME>
N-[2-[3,4-bis[[tert-butyl(dimethyl)silyl]oxy]phenyl]-2-[tert-butyl(dimethyl)silyl]oxy-ethyl]-N-methyl-3,5-bis(trifluoromethyl)benzamide
> <PUBCHEM_IUPAC_TRADITIONAL_NAME>
N-[2-[3,4-bis[[tert-butyl(dimethyl)silyl]oxy]phenyl]-2-[tert-butyl(dimethyl)silyl]oxy-ethyl]-N-methyl-3,5-bis(trifluoromethyl)benzamide
> <PUBCHEM_IUPAC_INCHI>
InChI=1S/C36H57F6NO4Si3/c1-32(2,3)48(11,12)45-28-18-17-24(21-29(28)46-49(13,14)33(4,5)6)30(47-50(15,16)34(7,8)9)23-43(10)31(44)25-19-26(35(37,38)39)22-27(20-25)36(40,41)42/h17-22,30H,23H2,1-16H3
> <PUBCHEM_IUPAC_INCHIKEY>
UMDBQTBNTLUKHK-UHFFFAOYSA-N
> <PUBCHEM_EXACT_MASS>
765.34995788
> <PUBCHEM_MOLECULAR_FORMULA>
C36H57F6NO4Si3
> <PUBCHEM_MOLECULAR_WEIGHT>
766.1
> <PUBCHEM_OPENEYE_CAN_SMILES>
CC(C)(C)[Si](C)(C)OC1=C(C=C(C=C1)C(CN(C)C(=O)C2=CC(=CC(=C2)C(F)(F)F)C(F)(F)F)O[Si](C)(C)C(C)(C)C)O[Si](C)(C)C(C)(C)C
> <PUBCHEM_OPENEYE_ISO_SMILES>
CC(C)(C)[Si](C)(C)OC1=C(C=C(C=C1)C(CN(C)C(=O)C2=CC(=CC(=C2)C(F)(F)F)C(F)(F)F)O[Si](C)(C)C(C)(C)C)O[Si](C)(C)C(C)(C)C
> <PUBCHEM_CACTVS_TPSA>
48
> <PUBCHEM_MONOISOTOPIC_WEIGHT>
765.34995788
> <PUBCHEM_TOTAL_CHARGE>
0
> <PUBCHEM_HEAVY_ATOM_COUNT>
50
> <PUBCHEM_ATOM_DEF_STEREO_COUNT>
0
> <PUBCHEM_ATOM_UDEF_STEREO_COUNT>
1
> <PUBCHEM_BOND_DEF_STEREO_COUNT>
0
> <PUBCHEM_BOND_UDEF_STEREO_COUNT>
0
> <PUBCHEM_ISOTOPIC_ATOM_COUNT>
0
> <PUBCHEM_COMPONENT_COUNT>
1
> <PUBCHEM_CACTVS_TAUTO_COUNT>
-1
> <PUBCHEM_COORDINATE_TYPE>
1
5
255
> <PUBCHEM_BONDANNOTATIONS>
18  37  3
24  38  8
24  39  8
30  36  8
30  38  8
36  40  8
39  40  8
43  44  8
43  45  8
44  46  8
45  47  8
46  48  8
47  48  8
$$$$
