528853
  -OEChem-10302200292D
 23 23  0     1  0  0  0  0  0999 V2000
    4.6137    1.0005    0.0000 S   0  0  0  0  0  0  0  0  0  0  0  0
    3.4902   -0.4083    0.0000 S   0  0  0  0  0  0  0  0  0  0  0  0
    5.7372   -0.4083    0.0000 S   0  0  0  0  0  0  0  0  0  0  0  0
    4.1137   -1.1901    0.0000 S   0  0  0  0  0  0  0  0  0  0  0  0
    5.1137   -1.1901    0.0000 S   0  0  0  0  0  0  0  0  0  0  0  0
    3.7127    0.5666    0.0000 C   0  0  3  0  0  0  0  0  0  0  0  0
    5.5146    0.5666    0.0000 C   0  0  3  0  0  0  0  0  0  0  0  0
    2.9309    1.1901    0.0000 C   0  0  0  0  0  0  0  0  0  0  0  0
    6.2965    1.1901    0.0000 C   0  0  0  0  0  0  0  0  0  0  0  0
    2.0000    0.8248    0.0000 C   0  0  0  0  0  0  0  0  0  0  0  0
    7.2274    0.8248    0.0000 C   0  0  0  0  0  0  0  0  0  0  0  0
    3.1275    0.3619    0.0000 H   0  0  0  0  0  0  0  0  0  0  0  0
    6.0998    0.3619    0.0000 H   0  0  0  0  0  0  0  0  0  0  0  0
    3.3957    1.6004    0.0000 H   0  0  0  0  0  0  0  0  0  0  0  0
    2.6076    1.7192    0.0000 H   0  0  0  0  0  0  0  0  0  0  0  0
    6.6198    1.7192    0.0000 H   0  0  0  0  0  0  0  0  0  0  0  0
    5.8316    1.6004    0.0000 H   0  0  0  0  0  0  0  0  0  0  0  0
    1.7735    1.4019    0.0000 H   0  0  0  0  0  0  0  0  0  0  0  0
    1.4229    0.5983    0.0000 H   0  0  0  0  0  0  0  0  0  0  0  0
    2.2265    0.2476    0.0000 H   0  0  0  0  0  0  0  0  0  0  0  0
    7.0008    0.2476    0.0000 H   0  0  0  0  0  0  0  0  0  0  0  0
    7.8045    0.5983    0.0000 H   0  0  0  0  0  0  0  0  0  0  0  0
    7.4539    1.4019    0.0000 H   0  0  0  0  0  0  0  0  0  0  0  0
  1  6  1  0  0  0  0
  1  7  1  0  0  0  0
  2  4  1  0  0  0  0
  2  6  1  0  0  0  0
  3  5  1  0  0  0  0
  3  7  1  0  0  0  0
  4  5  1  0  0  0  0
  6  8  1  0  0  0  0
  6 12  1  0  0  0  0
  7  9  1  0  0  0  0
  7 13  1  0  0  0  0
  8 10  1  0  0  0  0
  8 14  1  0  0  0  0
  8 15  1  0  0  0  0
  9 11  1  0  0  0  0
  9 16  1  0  0  0  0
  9 17  1  0  0  0  0
 10 18  1  0  0  0  0
 10 19  1  0  0  0  0
 10 20  1  0  0  0  0
 11 21  1  0  0  0  0
 11 22  1  0  0  0  0
 11 23  1  0  0  0  0
M  END
> <PUBCHEM_COMPOUND_CID>
528853
> <PUBCHEM_COMPOUND_CANONICALIZED>
1
> <PUBCHEM_CACTVS_COMPLEXITY>
95.1
> <PUBCHEM_CACTVS_HBOND_ACCEPTOR>
5
> <PUBCHEM_CACTVS_HBOND_DONOR>
0
> <PUBCHEM_CACTVS_ROTATABLE_BOND>
2
> <PUBCHEM_CACTVS_SUBSKEYS>
AAADccBgAABwAAAAAAAAAAAAAAAAAAAAAAAAAAAABIAAAAAAAAAAGAQAAAAACACEQACCAAAAAAgAAAAAAAAAAQAAABAAAAAAAAAAAAAgAAAAAAAAAAAgAAAAAAAAAAAAAAAAAAAAAAAAAAAAAAAAAAAAAA==
> <PUBCHEM_IUPAC_OPENEYE_NAME>
5,7-diethyl-1,2,3,4,6-pentathiepane
> <PUBCHEM_IUPAC_CAS_NAME>
5,7-diethyl-1,2,3,4,6-pentathiepane
> <PUBCHEM_IUPAC_NAME_MARKUP>
5,7-diethyl-1,2,3,4,6-pentathiepane
> <PUBCHEM_IUPAC_NAME>
5,7-diethyl-1,2,3,4,6-pentathiepane
> <PUBCHEM_IUPAC_SYSTEMATIC_NAME>
5,7-diethyl-1,2,3,4,6-pentathiepane
> <PUBCHEM_IUPAC_TRADITIONAL_NAME>
5,7-diethyl-1,2,3,4,6-pentathiepane
> <PUBCHEM_IUPAC_INCHI>
InChI=1S/C6H12S5/c1-3-5-7-6(4-2)9-11-10-8-5/h5-6H,3-4H2,1-2H3
> <PUBCHEM_IUPAC_INCHIKEY>
IVFDVOATXVTNHJ-UHFFFAOYSA-N
> <PUBCHEM_XLOGP3_AA>
4.3
> <PUBCHEM_EXACT_MASS>
243.95425625
> <PUBCHEM_MOLECULAR_FORMULA>
C6H12S5
> <PUBCHEM_MOLECULAR_WEIGHT>
244.5
> <PUBCHEM_OPENEYE_CAN_SMILES>
CCC1SC(SSSS1)CC
> <PUBCHEM_OPENEYE_ISO_SMILES>
CCC1SC(SSSS1)CC
> <PUBCHEM_CACTVS_TPSA>
127
> <PUBCHEM_MONOISOTOPIC_WEIGHT>
243.95425625
> <PUBCHEM_TOTAL_CHARGE>
0
> <PUBCHEM_HEAVY_ATOM_COUNT>
11
> <PUBCHEM_ATOM_DEF_STEREO_COUNT>
0
> <PUBCHEM_ATOM_UDEF_STEREO_COUNT>
2
> <PUBCHEM_BOND_DEF_STEREO_COUNT>
0
> <PUBCHEM_BOND_UDEF_STEREO_COUNT>
0
> <PUBCHEM_ISOTOPIC_ATOM_COUNT>
0
> <PUBCHEM_COMPONENT_COUNT>
1
> <PUBCHEM_CACTVS_TAUTO_COUNT>
-1
> <PUBCHEM_COORDINATE_TYPE>
1
5
255
> <PUBCHEM_BONDANNOTATIONS>
6  8  3
7  9  3
$$$$
