528876
  -OEChem-10302200292D
 37 37  0     1  0  0  0  0  0999 V2000
    5.5981    2.0000    0.0000 F   0  0  0  0  0  0  0  0  0  0  0  0
    3.5981    2.0000    0.0000 F   0  0  0  0  0  0  0  0  0  0  0  0
    4.5981    4.0000    0.0000 F   0  0  0  0  0  0  0  0  0  0  0  0
    5.5981    3.0000    0.0000 F   0  0  0  0  0  0  0  0  0  0  0  0
    3.5981    3.0000    0.0000 F   0  0  0  0  0  0  0  0  0  0  0  0
    8.0622    0.0000    0.0000 F   0  0  0  0  0  0  0  0  0  0  0  0
    7.6962   -1.3660    0.0000 F   0  0  0  0  0  0  0  0  0  0  0  0
    6.6962    0.3660    0.0000 F   0  0  0  0  0  0  0  0  0  0  0  0
    5.4641   -0.5000    0.0000 O   0  0  0  0  0  0  0  0  0  0  0  0
    4.5981   -2.0000    0.0000 O   0  0  0  0  0  0  0  0  0  0  0  0
    5.4641    0.5000    0.0000 O   0  0  0  0  0  0  0  0  0  0  0  0
    3.7320    0.5000    0.0000 N   0  0  0  0  0  0  0  0  0  0  0  0
    3.7320   -0.5000    0.0000 C   0  0  3  0  0  0  0  0  0  0  0  0
    2.8660   -1.0000    0.0000 C   0  0  0  0  0  0  0  0  0  0  0  0
    2.8660   -2.0000    0.0000 C   0  0  0  0  0  0  0  0  0  0  0  0
    4.5981   -1.0000    0.0000 C   0  0  0  0  0  0  0  0  0  0  0  0
    4.5981    1.0000    0.0000 C   0  0  0  0  0  0  0  0  0  0  0  0
    4.5981    2.0000    0.0000 C   0  0  0  0  0  0  0  0  0  0  0  0
    2.0000   -2.5000    0.0000 C   0  0  0  0  0  0  0  0  0  0  0  0
    3.7320   -2.5000    0.0000 C   0  0  0  0  0  0  0  0  0  0  0  0
    2.0000   -3.5000    0.0000 C   0  0  0  0  0  0  0  0  0  0  0  0
    3.7320   -3.5000    0.0000 C   0  0  0  0  0  0  0  0  0  0  0  0
    4.5981    3.0000    0.0000 C   0  0  0  0  0  0  0  0  0  0  0  0
    6.3301   -1.0000    0.0000 C   0  0  0  0  0  0  0  0  0  0  0  0
    2.8660   -4.0000    0.0000 C   0  0  0  0  0  0  0  0  0  0  0  0
    7.1962   -0.5000    0.0000 C   0  0  0  0  0  0  0  0  0  0  0  0
    4.2690   -0.1900    0.0000 H   0  0  0  0  0  0  0  0  0  0  0  0
    2.6540   -0.4174    0.0000 H   0  0  0  0  0  0  0  0  0  0  0  0
    2.2554   -1.1077    0.0000 H   0  0  0  0  0  0  0  0  0  0  0  0
    3.1951    0.8100    0.0000 H   0  0  0  0  0  0  0  0  0  0  0  0
    1.4631   -2.1900    0.0000 H   0  0  0  0  0  0  0  0  0  0  0  0
    4.2690   -2.1900    0.0000 H   0  0  0  0  0  0  0  0  0  0  0  0
    1.4631   -3.8100    0.0000 H   0  0  0  0  0  0  0  0  0  0  0  0
    4.2690   -3.8100    0.0000 H   0  0  0  0  0  0  0  0  0  0  0  0
    5.9316   -1.4750    0.0000 H   0  0  0  0  0  0  0  0  0  0  0  0
    6.7287   -1.4750    0.0000 H   0  0  0  0  0  0  0  0  0  0  0  0
    2.8660   -4.6200    0.0000 H   0  0  0  0  0  0  0  0  0  0  0  0
  1 18  1  0  0  0  0
  2 18  1  0  0  0  0
  3 23  1  0  0  0  0
  4 23  1  0  0  0  0
  5 23  1  0  0  0  0
  6 26  1  0  0  0  0
  7 26  1  0  0  0  0
  8 26  1  0  0  0  0
  9 16  1  0  0  0  0
  9 24  1  0  0  0  0
 10 16  2  0  0  0  0
 11 17  2  0  0  0  0
 12 13  1  0  0  0  0
 12 17  1  0  0  0  0
 12 30  1  0  0  0  0
 13 14  1  0  0  0  0
 13 16  1  0  0  0  0
 13 27  1  0  0  0  0
 14 15  1  0  0  0  0
 14 28  1  0  0  0  0
 14 29  1  0  0  0  0
 15 19  2  0  0  0  0
 15 20  1  0  0  0  0
 17 18  1  0  0  0  0
 18 23  1  0  0  0  0
 19 21  1  0  0  0  0
 19 31  1  0  0  0  0
 20 22  2  0  0  0  0
 20 32  1  0  0  0  0
 21 25  2  0  0  0  0
 21 33  1  0  0  0  0
 22 25  1  0  0  0  0
 22 34  1  0  0  0  0
 24 26  1  0  0  0  0
 24 35  1  0  0  0  0
 24 36  1  0  0  0  0
 25 37  1  0  0  0  0
M  END
> <PUBCHEM_COMPOUND_CID>
528876
> <PUBCHEM_COMPOUND_CANONICALIZED>
1
> <PUBCHEM_CACTVS_COMPLEXITY>
497
> <PUBCHEM_CACTVS_HBOND_ACCEPTOR>
11
> <PUBCHEM_CACTVS_HBOND_DONOR>
1
> <PUBCHEM_CACTVS_ROTATABLE_BOND>
7
> <PUBCHEM_CACTVS_SUBSKEYS>
AAADccByMcAAAAAAAAAAAAAAAAAAAAAAAAAwAAAAAAAAAAABAAAAHwAQAAAADCjhmBYwCILABACIAiHSGAACAAAgAAAIiIGIAIgKIDKAkTGHIAAklgCYiAeYyKCOAAAAAAAAAAAAAAAAAAAAAAAAAAAAAA==
> <PUBCHEM_IUPAC_OPENEYE_NAME>
2,2,2-trifluoroethyl 2-(2,2,3,3,3-pentafluoropropanoylamino)-3-phenyl-propanoate
> <PUBCHEM_IUPAC_CAS_NAME>
2-[(2,2,3,3,3-pentafluoro-1-oxopropyl)amino]-3-phenylpropanoic acid 2,2,2-trifluoroethyl ester
> <PUBCHEM_IUPAC_NAME_MARKUP>
2,2,2-trifluoroethyl 2-(2,2,3,3,3-pentafluoropropanoylamino)-3-phenylpropanoate
> <PUBCHEM_IUPAC_NAME>
2,2,2-trifluoroethyl 2-(2,2,3,3,3-pentafluoropropanoylamino)-3-phenylpropanoate
> <PUBCHEM_IUPAC_SYSTEMATIC_NAME>
2,2,2-tris(fluoranyl)ethyl 2-[2,2,3,3,3-pentakis(fluoranyl)propanoylamino]-3-phenyl-propanoate
> <PUBCHEM_IUPAC_TRADITIONAL_NAME>
2-(2,2,3,3,3-pentafluoropropanoylamino)-3-phenyl-propionic acid 2,2,2-trifluoroethyl ester
> <PUBCHEM_IUPAC_INCHI>
InChI=1S/C14H11F8NO3/c15-12(16,17)7-26-10(24)9(6-8-4-2-1-3-5-8)23-11(25)13(18,19)14(20,21)22/h1-5,9H,6-7H2,(H,23,25)
> <PUBCHEM_IUPAC_INCHIKEY>
POECKMJIDGHMCD-UHFFFAOYSA-N
> <PUBCHEM_XLOGP3_AA>
4.4
> <PUBCHEM_EXACT_MASS>
393.06111851
> <PUBCHEM_MOLECULAR_FORMULA>
C14H11F8NO3
> <PUBCHEM_MOLECULAR_WEIGHT>
393.23
> <PUBCHEM_OPENEYE_CAN_SMILES>
C1=CC=C(C=C1)CC(C(=O)OCC(F)(F)F)NC(=O)C(C(F)(F)F)(F)F
> <PUBCHEM_OPENEYE_ISO_SMILES>
C1=CC=C(C=C1)CC(C(=O)OCC(F)(F)F)NC(=O)C(C(F)(F)F)(F)F
> <PUBCHEM_CACTVS_TPSA>
55.4
> <PUBCHEM_MONOISOTOPIC_WEIGHT>
393.06111851
> <PUBCHEM_TOTAL_CHARGE>
0
> <PUBCHEM_HEAVY_ATOM_COUNT>
26
> <PUBCHEM_ATOM_DEF_STEREO_COUNT>
0
> <PUBCHEM_ATOM_UDEF_STEREO_COUNT>
1
> <PUBCHEM_BOND_DEF_STEREO_COUNT>
0
> <PUBCHEM_BOND_UDEF_STEREO_COUNT>
0
> <PUBCHEM_ISOTOPIC_ATOM_COUNT>
0
> <PUBCHEM_COMPONENT_COUNT>
1
> <PUBCHEM_CACTVS_TAUTO_COUNT>
-1
> <PUBCHEM_COORDINATE_TYPE>
1
5
255
> <PUBCHEM_BONDANNOTATIONS>
13  14  3
15  19  8
15  20  8
19  21  8
20  22  8
21  25  8
22  25  8
$$$$
