528850
  -OEChem-10302200292D
 31 31  0     1  0  0  0  0  0999 V2000
    7.1962    1.0000    0.0000 S   0  0  0  0  0  0  0  0  0  0  0  0
    6.3301   -0.5000    0.0000 S   0  0  0  0  0  0  0  0  0  0  0  0
    8.0622   -0.5000    0.0000 S   0  0  0  0  0  0  0  0  0  0  0  0
    7.1962   -1.0000    0.0000 S   0  0  0  0  0  0  0  0  0  0  0  0
    5.4641    1.0000    0.0000 C   0  0  0  0  0  0  0  0  0  0  0  0
    4.5981    0.5000    0.0000 C   0  0  0  0  0  0  0  0  0  0  0  0
    6.3301    0.5000    0.0000 C   0  0  3  0  0  0  0  0  0  0  0  0
    3.7320    1.0000    0.0000 C   0  0  0  0  0  0  0  0  0  0  0  0
    8.0622    0.5000    0.0000 C   0  0  3  0  0  0  0  0  0  0  0  0
    2.8660    0.5000    0.0000 C   0  0  0  0  0  0  0  0  0  0  0  0
    8.9282    1.0000    0.0000 C   0  0  0  0  0  0  0  0  0  0  0  0
    2.0000    1.0000    0.0000 C   0  0  0  0  0  0  0  0  0  0  0  0
    9.7942    0.5000    0.0000 C   0  0  0  0  0  0  0  0  0  0  0  0
    5.8626    1.4750    0.0000 H   0  0  0  0  0  0  0  0  0  0  0  0
    5.0656    1.4750    0.0000 H   0  0  0  0  0  0  0  0  0  0  0  0
    4.1996    0.0251    0.0000 H   0  0  0  0  0  0  0  0  0  0  0  0
    4.9966    0.0251    0.0000 H   0  0  0  0  0  0  0  0  0  0  0  0
    5.7932    0.1900    0.0000 H   0  0  0  0  0  0  0  0  0  0  0  0
    4.1306    1.4750    0.0000 H   0  0  0  0  0  0  0  0  0  0  0  0
    3.3335    1.4750    0.0000 H   0  0  0  0  0  0  0  0  0  0  0  0
    8.0622    1.1200    0.0000 H   0  0  0  0  0  0  0  0  0  0  0  0
    2.4675    0.0251    0.0000 H   0  0  0  0  0  0  0  0  0  0  0  0
    3.2646    0.0251    0.0000 H   0  0  0  0  0  0  0  0  0  0  0  0
    9.3267    1.4750    0.0000 H   0  0  0  0  0  0  0  0  0  0  0  0
    8.5297    1.4750    0.0000 H   0  0  0  0  0  0  0  0  0  0  0  0
    2.3100    1.5369    0.0000 H   0  0  0  0  0  0  0  0  0  0  0  0
    1.4631    1.3100    0.0000 H   0  0  0  0  0  0  0  0  0  0  0  0
    1.6900    0.4631    0.0000 H   0  0  0  0  0  0  0  0  0  0  0  0
    9.4842   -0.0369    0.0000 H   0  0  0  0  0  0  0  0  0  0  0  0
   10.3312    0.1900    0.0000 H   0  0  0  0  0  0  0  0  0  0  0  0
   10.1042    1.0369    0.0000 H   0  0  0  0  0  0  0  0  0  0  0  0
  1  7  1  0  0  0  0
  1  9  1  0  0  0  0
  2  4  1  0  0  0  0
  2  7  1  0  0  0  0
  3  4  1  0  0  0  0
  3  9  1  0  0  0  0
  5  6  1  0  0  0  0
  5  7  1  0  0  0  0
  5 14  1  0  0  0  0
  5 15  1  0  0  0  0
  6  8  1  0  0  0  0
  6 16  1  0  0  0  0
  6 17  1  0  0  0  0
  7 18  1  0  0  0  0
  8 10  1  0  0  0  0
  8 19  1  0  0  0  0
  8 20  1  0  0  0  0
  9 11  1  0  0  0  0
  9 21  1  0  0  0  0
 10 12  1  0  0  0  0
 10 22  1  0  0  0  0
 10 23  1  0  0  0  0
 11 13  1  0  0  0  0
 11 24  1  0  0  0  0
 11 25  1  0  0  0  0
 12 26  1  0  0  0  0
 12 27  1  0  0  0  0
 12 28  1  0  0  0  0
 13 29  1  0  0  0  0
 13 30  1  0  0  0  0
 13 31  1  0  0  0  0
M  END
> <PUBCHEM_COMPOUND_CID>
528850
> <PUBCHEM_COMPOUND_CANONICALIZED>
1
> <PUBCHEM_CACTVS_COMPLEXITY>
129
> <PUBCHEM_CACTVS_HBOND_ACCEPTOR>
4
> <PUBCHEM_CACTVS_HBOND_DONOR>
0
> <PUBCHEM_CACTVS_ROTATABLE_BOND>
5
> <PUBCHEM_CACTVS_SUBSKEYS>
AAADceBwAABwAAAAAAAAAAAAAAAAAAAAAAAkAAAAAAAAAAAAAAAAGAQAAAAACACEQACCAAAAAAgAAAAAAAAAAQAAABAAAAAAAAAAAAIgAAAAAAAAAAAgAAEAAAAAAAAAAAAAAAAAAAAAAAAAAAAAAAAAAA==
> <PUBCHEM_IUPAC_OPENEYE_NAME>
4-ethyl-6-pentyl-1,2,3,5-tetrathiane
> <PUBCHEM_IUPAC_CAS_NAME>
4-ethyl-6-pentyl-1,2,3,5-tetrathiane
> <PUBCHEM_IUPAC_NAME_MARKUP>
4-ethyl-6-pentyl-1,2,3,5-tetrathiane
> <PUBCHEM_IUPAC_NAME>
4-ethyl-6-pentyl-1,2,3,5-tetrathiane
> <PUBCHEM_IUPAC_SYSTEMATIC_NAME>
4-ethyl-6-pentyl-1,2,3,5-tetrathiane
> <PUBCHEM_IUPAC_TRADITIONAL_NAME>
4-amyl-6-ethyl-1,2,3,5-tetrathiane
> <PUBCHEM_IUPAC_INCHI>
InChI=1S/C9H18S4/c1-3-5-6-7-9-10-8(4-2)11-13-12-9/h8-9H,3-7H2,1-2H3
> <PUBCHEM_IUPAC_INCHIKEY>
MFMHIILUPVLZHI-UHFFFAOYSA-N
> <PUBCHEM_XLOGP3_AA>
5.3
> <PUBCHEM_EXACT_MASS>
254.02913527
> <PUBCHEM_MOLECULAR_FORMULA>
C9H18S4
> <PUBCHEM_MOLECULAR_WEIGHT>
254.5
> <PUBCHEM_OPENEYE_CAN_SMILES>
CCCCCC1SC(SSS1)CC
> <PUBCHEM_OPENEYE_ISO_SMILES>
CCCCCC1SC(SSS1)CC
> <PUBCHEM_CACTVS_TPSA>
101
> <PUBCHEM_MONOISOTOPIC_WEIGHT>
254.02913527
> <PUBCHEM_TOTAL_CHARGE>
0
> <PUBCHEM_HEAVY_ATOM_COUNT>
13
> <PUBCHEM_ATOM_DEF_STEREO_COUNT>
0
> <PUBCHEM_ATOM_UDEF_STEREO_COUNT>
2
> <PUBCHEM_BOND_DEF_STEREO_COUNT>
0
> <PUBCHEM_BOND_UDEF_STEREO_COUNT>
0
> <PUBCHEM_ISOTOPIC_ATOM_COUNT>
0
> <PUBCHEM_COMPONENT_COUNT>
1
> <PUBCHEM_CACTVS_TAUTO_COUNT>
-1
> <PUBCHEM_COORDINATE_TYPE>
1
5
255
> <PUBCHEM_BONDANNOTATIONS>
7  5  3
9  11  3
$$$$
