528817
  -OEChem-10302200292D
 46 48  0     1  0  0  0  0  0999 V2000
    3.7895    2.0922    0.0000 Si  0  0  0  0  0  0  0  0  0  0  0  0
    6.3981   -1.4524    0.0000 O   0  0  0  0  0  0  0  0  0  0  0  0
    4.6497    1.5822    0.0000 O   0  0  0  0  0  0  0  0  0  0  0  0
    6.3981    1.5476    0.0000 O   0  0  0  0  0  0  0  0  0  0  0  0
    2.8680   -1.4765    0.0000 O   0  0  0  0  0  0  0  0  0  0  0  0
    7.2641   -0.9524    0.0000 C   0  0  3  0  0  0  0  0  0  0  0  0
    7.2641    0.0476    0.0000 C   0  0  0  0  0  0  0  0  0  0  0  0
    5.5320    0.0476    0.0000 C   0  0  0  0  0  0  0  0  0  0  0  0
    5.5320   -0.9524    0.0000 C   0  0  0  0  0  0  0  0  0  0  0  0
    6.3981    0.5476    0.0000 C   0  0  0  0  0  0  0  0  0  0  0  0
    4.6381    0.5823    0.0000 C   0  0  0  0  0  0  0  0  0  0  0  0
    8.1301   -1.4524    0.0000 C   0  0  0  0  0  0  0  0  0  0  0  0
    4.6381   -1.4870    0.0000 C   0  0  0  0  0  0  0  0  0  0  0  0
    2.9293    2.6022    0.0000 C   0  0  0  0  0  0  0  0  0  0  0  0
    4.2995    2.9524    0.0000 C   0  0  0  0  0  0  0  0  0  0  0  0
    3.2795    1.2320    0.0000 C   0  0  0  0  0  0  0  0  0  0  0  0
    3.7320    0.0684    0.0000 C   0  0  0  0  0  0  0  0  0  0  0  0
    3.7320   -0.9732    0.0000 C   0  0  0  0  0  0  0  0  0  0  0  0
    8.9962   -0.9524    0.0000 C   0  0  0  0  0  0  0  0  0  0  0  0
    8.1301   -2.4524    0.0000 C   0  0  0  0  0  0  0  0  0  0  0  0
    9.8622   -1.4524    0.0000 C   0  0  0  0  0  0  0  0  0  0  0  0
    8.9962   -2.9524    0.0000 C   0  0  0  0  0  0  0  0  0  0  0  0
    9.8622   -2.4524    0.0000 C   0  0  0  0  0  0  0  0  0  0  0  0
    2.0000   -0.9799    0.0000 C   0  0  0  0  0  0  0  0  0  0  0  0
    7.2641   -1.5724    0.0000 H   0  0  0  0  0  0  0  0  0  0  0  0
    7.8747   -0.0600    0.0000 H   0  0  0  0  0  0  0  0  0  0  0  0
    7.4762    0.6302    0.0000 H   0  0  0  0  0  0  0  0  0  0  0  0
    3.2455    3.1355    0.0000 H   0  0  0  0  0  0  0  0  0  0  0  0
    2.3960    2.9184    0.0000 H   0  0  0  0  0  0  0  0  0  0  0  0
    2.6131    2.0689    0.0000 H   0  0  0  0  0  0  0  0  0  0  0  0
    4.8328    2.6362    0.0000 H   0  0  0  0  0  0  0  0  0  0  0  0
    4.6156    3.4857    0.0000 H   0  0  0  0  0  0  0  0  0  0  0  0
    3.7662    3.2686    0.0000 H   0  0  0  0  0  0  0  0  0  0  0  0
    2.7462    1.5482    0.0000 H   0  0  0  0  0  0  0  0  0  0  0  0
    2.9633    0.6987    0.0000 H   0  0  0  0  0  0  0  0  0  0  0  0
    3.8128    0.9158    0.0000 H   0  0  0  0  0  0  0  0  0  0  0  0
    4.6453   -2.1070    0.0000 H   0  0  0  0  0  0  0  0  0  0  0  0
    3.1963    0.3805    0.0000 H   0  0  0  0  0  0  0  0  0  0  0  0
    8.9962   -0.3324    0.0000 H   0  0  0  0  0  0  0  0  0  0  0  0
    7.5932   -2.7624    0.0000 H   0  0  0  0  0  0  0  0  0  0  0  0
   10.3991   -1.1424    0.0000 H   0  0  0  0  0  0  0  0  0  0  0  0
    8.9962   -3.5724    0.0000 H   0  0  0  0  0  0  0  0  0  0  0  0
   10.3991   -2.7624    0.0000 H   0  0  0  0  0  0  0  0  0  0  0  0
    2.3079   -0.4417    0.0000 H   0  0  0  0  0  0  0  0  0  0  0  0
    1.4619   -0.6719    0.0000 H   0  0  0  0  0  0  0  0  0  0  0  0
    1.6921   -1.5180    0.0000 H   0  0  0  0  0  0  0  0  0  0  0  0
  1  3  1  0  0  0  0
  1 14  1  0  0  0  0
  1 15  1  0  0  0  0
  1 16  1  0  0  0  0
  2  6  1  0  0  0  0
  2  9  1  0  0  0  0
  3 11  1  0  0  0  0
  4 10  2  0  0  0  0
  5 18  1  0  0  0  0
  5 24  1  0  0  0  0
  6  7  1  0  0  0  0
  6 12  1  0  0  0  0
  6 25  1  0  0  0  0
  7 10  1  0  0  0  0
  7 26  1  0  0  0  0
  7 27  1  0  0  0  0
  8  9  2  0  0  0  0
  8 10  1  0  0  0  0
  8 11  1  0  0  0  0
  9 13  1  0  0  0  0
 11 17  2  0  0  0  0
 12 19  2  0  0  0  0
 12 20  1  0  0  0  0
 13 18  2  0  0  0  0
 13 37  1  0  0  0  0
 14 28  1  0  0  0  0
 14 29  1  0  0  0  0
 14 30  1  0  0  0  0
 15 31  1  0  0  0  0
 15 32  1  0  0  0  0
 15 33  1  0  0  0  0
 16 34  1  0  0  0  0
 16 35  1  0  0  0  0
 16 36  1  0  0  0  0
 17 18  1  0  0  0  0
 17 38  1  0  0  0  0
 19 21  1  0  0  0  0
 19 39  1  0  0  0  0
 20 22  2  0  0  0  0
 20 40  1  0  0  0  0
 21 23  2  0  0  0  0
 21 41  1  0  0  0  0
 22 23  1  0  0  0  0
 22 42  1  0  0  0  0
 23 43  1  0  0  0  0
 24 44  1  0  0  0  0
 24 45  1  0  0  0  0
 24 46  1  0  0  0  0
M  END
> <PUBCHEM_COMPOUND_CID>
528817
> <PUBCHEM_COMPOUND_CANONICALIZED>
1
> <PUBCHEM_CACTVS_COMPLEXITY>
441
> <PUBCHEM_CACTVS_HBOND_ACCEPTOR>
4
> <PUBCHEM_CACTVS_HBOND_DONOR>
0
> <PUBCHEM_CACTVS_ROTATABLE_BOND>
4
> <PUBCHEM_CACTVS_SUBSKEYS>
AAADceB4OAgAAAAAAAAAAAAAAAAAAAAAAAA0YIAAAAAAAACRQAAAGhAAAEAADBSgmAJyBoAABAGIAqBSAAACCAAkIAAIiAEGCMgMJzaENRqCOWCl4BUIqQeI7OzOIAAACAAIAABAAAAQABAAAAAAAAAAAA==
> <PUBCHEM_IUPAC_OPENEYE_NAME>
7-methoxy-2-phenyl-5-trimethylsilyloxy-chroman-4-one
> <PUBCHEM_IUPAC_CAS_NAME>
7-methoxy-2-phenyl-5-trimethylsilyloxy-3,4-dihydro-2H-1-benzopyran-4-one
> <PUBCHEM_IUPAC_NAME_MARKUP>
7-methoxy-2-phenyl-5-trimethylsilyloxy-2,3-dihydrochromen-4-one
> <PUBCHEM_IUPAC_NAME>
7-methoxy-2-phenyl-5-trimethylsilyloxy-2,3-dihydrochromen-4-one
> <PUBCHEM_IUPAC_SYSTEMATIC_NAME>
7-methoxy-2-phenyl-5-trimethylsilyloxy-2,3-dihydrochromen-4-one
> <PUBCHEM_IUPAC_TRADITIONAL_NAME>
7-methoxy-2-phenyl-5-trimethylsilyloxy-chroman-4-one
> <PUBCHEM_IUPAC_INCHI>
InChI=1S/C19H22O4Si/c1-21-14-10-17-19(18(11-14)23-24(2,3)4)15(20)12-16(22-17)13-8-6-5-7-9-13/h5-11,16H,12H2,1-4H3
> <PUBCHEM_IUPAC_INCHIKEY>
IAUKXYPWWCYZSC-UHFFFAOYSA-N
> <PUBCHEM_EXACT_MASS>
342.12873571
> <PUBCHEM_MOLECULAR_FORMULA>
C19H22O4Si
> <PUBCHEM_MOLECULAR_WEIGHT>
342.5
> <PUBCHEM_OPENEYE_CAN_SMILES>
COC1=CC2=C(C(=O)CC(O2)C3=CC=CC=C3)C(=C1)O[Si](C)(C)C
> <PUBCHEM_OPENEYE_ISO_SMILES>
COC1=CC2=C(C(=O)CC(O2)C3=CC=CC=C3)C(=C1)O[Si](C)(C)C
> <PUBCHEM_CACTVS_TPSA>
44.8
> <PUBCHEM_MONOISOTOPIC_WEIGHT>
342.12873571
> <PUBCHEM_TOTAL_CHARGE>
0
> <PUBCHEM_HEAVY_ATOM_COUNT>
24
> <PUBCHEM_ATOM_DEF_STEREO_COUNT>
0
> <PUBCHEM_ATOM_UDEF_STEREO_COUNT>
1
> <PUBCHEM_BOND_DEF_STEREO_COUNT>
0
> <PUBCHEM_BOND_UDEF_STEREO_COUNT>
0
> <PUBCHEM_ISOTOPIC_ATOM_COUNT>
0
> <PUBCHEM_COMPONENT_COUNT>
1
> <PUBCHEM_CACTVS_TAUTO_COUNT>
-1
> <PUBCHEM_COORDINATE_TYPE>
1
5
255
> <PUBCHEM_BONDANNOTATIONS>
11  17  8
12  19  8
12  20  8
13  18  8
17  18  8
19  21  8
20  22  8
21  23  8
22  23  8
6  12  3
8  11  8
8  9  8
9  13  8
$$$$
