528874
  -OEChem-10302200292D
 55 55  0     1  0  0  0  0  0999 V2000
   10.1603   -4.6160    0.0000 F   0  0  0  0  0  0  0  0  0  0  0  0
   11.1603   -2.8840    0.0000 F   0  0  0  0  0  0  0  0  0  0  0  0
   12.3923   -4.7500    0.0000 F   0  0  0  0  0  0  0  0  0  0  0  0
   11.0263   -5.1160    0.0000 F   0  0  0  0  0  0  0  0  0  0  0  0
   12.0263   -3.3840    0.0000 F   0  0  0  0  0  0  0  0  0  0  0  0
    9.0622    3.7500    0.0000 F   0  0  0  0  0  0  0  0  0  0  0  0
    7.0622    3.7500    0.0000 F   0  0  0  0  0  0  0  0  0  0  0  0
    7.1962   -5.7500    0.0000 F   0  0  0  0  0  0  0  0  0  0  0  0
    6.1962   -4.7500    0.0000 F   0  0  0  0  0  0  0  0  0  0  0  0
    8.1962   -4.7500    0.0000 F   0  0  0  0  0  0  0  0  0  0  0  0
    3.2320    0.3840    0.0000 F   0  0  0  0  0  0  0  0  0  0  0  0
    4.2320    2.1160    0.0000 F   0  0  0  0  0  0  0  0  0  0  0  0
    8.0622    5.7500    0.0000 F   0  0  0  0  0  0  0  0  0  0  0  0
    9.0622    4.7500    0.0000 F   0  0  0  0  0  0  0  0  0  0  0  0
    7.0622    4.7500    0.0000 F   0  0  0  0  0  0  0  0  0  0  0  0
    2.0000    2.2500    0.0000 F   0  0  0  0  0  0  0  0  0  0  0  0
    2.3660    0.8840    0.0000 F   0  0  0  0  0  0  0  0  0  0  0  0
    3.3660    2.6160    0.0000 F   0  0  0  0  0  0  0  0  0  0  0  0
    8.0622   -3.2500    0.0000 O   0  0  0  0  0  0  0  0  0  0  0  0
    7.1962    2.2500    0.0000 O   0  0  0  0  0  0  0  0  0  0  0  0
    5.4641    1.2500    0.0000 O   0  0  0  0  0  0  0  0  0  0  0  0
    7.1962   -1.7500    0.0000 O   0  0  0  0  0  0  0  0  0  0  0  0
    8.9282   -3.7500    0.0000 O   0  0  0  0  0  0  0  0  0  0  0  0
    8.9282    2.2500    0.0000 O   0  0  0  0  0  0  0  0  0  0  0  0
    4.5981   -0.2500    0.0000 O   0  0  0  0  0  0  0  0  0  0  0  0
    9.7942   -2.2500    0.0000 N   0  0  0  0  0  0  0  0  0  0  0  0
    8.9282   -1.7500    0.0000 C   0  0  3  0  0  0  0  0  0  0  0  0
    8.9282   -0.7500    0.0000 C   0  0  0  0  0  0  0  0  0  0  0  0
    8.0622   -0.2500    0.0000 C   0  0  0  0  0  0  0  0  0  0  0  0
    8.0622    0.7500    0.0000 C   0  0  0  0  0  0  0  0  0  0  0  0
    8.0622   -2.2500    0.0000 C   0  0  0  0  0  0  0  0  0  0  0  0
    7.1962   -0.7500    0.0000 C   0  0  0  0  0  0  0  0  0  0  0  0
    7.1962    1.2500    0.0000 C   0  0  0  0  0  0  0  0  0  0  0  0
    6.3301    0.7500    0.0000 C   0  0  0  0  0  0  0  0  0  0  0  0
    9.7942   -3.2500    0.0000 C   0  0  0  0  0  0  0  0  0  0  0  0
    6.3301   -0.2500    0.0000 C   0  0  0  0  0  0  0  0  0  0  0  0
   10.6603   -3.7500    0.0000 C   0  0  0  0  0  0  0  0  0  0  0  0
    7.1962   -3.7500    0.0000 C   0  0  0  0  0  0  0  0  0  0  0  0
   11.5263   -4.2500    0.0000 C   0  0  0  0  0  0  0  0  0  0  0  0
    8.0622    2.7500    0.0000 C   0  0  0  0  0  0  0  0  0  0  0  0
    4.5981    0.7500    0.0000 C   0  0  0  0  0  0  0  0  0  0  0  0
    7.1962   -4.7500    0.0000 C   0  0  0  0  0  0  0  0  0  0  0  0
    8.0622    3.7500    0.0000 C   0  0  0  0  0  0  0  0  0  0  0  0
    3.7320    1.2500    0.0000 C   0  0  0  0  0  0  0  0  0  0  0  0
    8.0622    4.7500    0.0000 C   0  0  0  0  0  0  0  0  0  0  0  0
    2.8660    1.7500    0.0000 C   0  0  0  0  0  0  0  0  0  0  0  0
    9.4651   -1.4400    0.0000 H   0  0  0  0  0  0  0  0  0  0  0  0
    9.5388   -0.8577    0.0000 H   0  0  0  0  0  0  0  0  0  0  0  0
    9.1403   -0.1674    0.0000 H   0  0  0  0  0  0  0  0  0  0  0  0
   10.3312   -1.9400    0.0000 H   0  0  0  0  0  0  0  0  0  0  0  0
    8.5991    1.0600    0.0000 H   0  0  0  0  0  0  0  0  0  0  0  0
    7.1962   -1.3700    0.0000 H   0  0  0  0  0  0  0  0  0  0  0  0
    5.7932   -0.5600    0.0000 H   0  0  0  0  0  0  0  0  0  0  0  0
    6.9841   -3.1674    0.0000 H   0  0  0  0  0  0  0  0  0  0  0  0
    6.5856   -3.8577    0.0000 H   0  0  0  0  0  0  0  0  0  0  0  0
  1 37  1  0  0  0  0
  2 37  1  0  0  0  0
  3 39  1  0  0  0  0
  4 39  1  0  0  0  0
  5 39  1  0  0  0  0
  6 43  1  0  0  0  0
  7 43  1  0  0  0  0
  8 42  1  0  0  0  0
  9 42  1  0  0  0  0
 10 42  1  0  0  0  0
 11 44  1  0  0  0  0
 12 44  1  0  0  0  0
 13 45  1  0  0  0  0
 14 45  1  0  0  0  0
 15 45  1  0  0  0  0
 16 46  1  0  0  0  0
 17 46  1  0  0  0  0
 18 46  1  0  0  0  0
 19 31  1  0  0  0  0
 19 38  1  0  0  0  0
 20 33  1  0  0  0  0
 20 40  1  0  0  0  0
 21 34  1  0  0  0  0
 21 41  1  0  0  0  0
 22 31  2  0  0  0  0
 23 35  2  0  0  0  0
 24 40  2  0  0  0  0
 25 41  2  0  0  0  0
 26 27  1  0  0  0  0
 26 35  1  0  0  0  0
 26 50  1  0  0  0  0
 27 28  1  0  0  0  0
 27 31  1  0  0  0  0
 27 47  1  0  0  0  0
 28 29  1  0  0  0  0
 28 48  1  0  0  0  0
 28 49  1  0  0  0  0
 29 30  2  0  0  0  0
 29 32  1  0  0  0  0
 30 33  1  0  0  0  0
 30 51  1  0  0  0  0
 32 36  2  0  0  0  0
 32 52  1  0  0  0  0
 33 34  2  0  0  0  0
 34 36  1  0  0  0  0
 35 37  1  0  0  0  0
 36 53  1  0  0  0  0
 37 39  1  0  0  0  0
 38 42  1  0  0  0  0
 38 54  1  0  0  0  0
 38 55  1  0  0  0  0
 40 43  1  0  0  0  0
 41 44  1  0  0  0  0
 43 45  1  0  0  0  0
 44 46  1  0  0  0  0
M  END
> <PUBCHEM_COMPOUND_CID>
528874
> <PUBCHEM_COMPOUND_CANONICALIZED>
1
> <PUBCHEM_CACTVS_COMPLEXITY>
1130
> <PUBCHEM_CACTVS_HBOND_ACCEPTOR>
25
> <PUBCHEM_CACTVS_HBOND_DONOR>
1
> <PUBCHEM_CACTVS_ROTATABLE_BOND>
13
> <PUBCHEM_CACTVS_SUBSKEYS>
AAADccB6OcAAAAAAAAAAAAAAAAAAAAAAAAAwAAAAAAAAAAABAAAAHwAQAAAADCzhmBYwDoLABACIAiHSGAACCAAgIAAIiIGOiIgPJjKEsTuHOiKk1hGaqAeY2LOOIAABAAAAQABAAAIAAACAAAAAAAAAAA==
> <PUBCHEM_IUPAC_OPENEYE_NAME>
[4-[3-oxo-2-(2,2,3,3,3-pentafluoropropanoylamino)-3-(2,2,2-trifluoroethoxy)propyl]-2-(2,2,3,3,3-pentafluoropropanoyloxy)phenyl] 2,2,3,3,3-pentafluoropropanoate
> <PUBCHEM_IUPAC_CAS_NAME>
2,2,3,3,3-pentafluoropropanoic acid [4-[3-oxo-2-[(2,2,3,3,3-pentafluoro-1-oxopropyl)amino]-3-(2,2,2-trifluoroethoxy)propyl]-2-(2,2,3,3,3-pentafluoro-1-oxopropoxy)phenyl] ester
> <PUBCHEM_IUPAC_NAME_MARKUP>
[4-[3-oxo-2-(2,2,3,3,3-pentafluoropropanoylamino)-3-(2,2,2-trifluoroethoxy)propyl]-2-(2,2,3,3,3-pentafluoropropanoyloxy)phenyl] 2,2,3,3,3-pentafluoropropanoate
> <PUBCHEM_IUPAC_NAME>
[4-[3-oxo-2-(2,2,3,3,3-pentafluoropropanoylamino)-3-(2,2,2-trifluoroethoxy)propyl]-2-(2,2,3,3,3-pentafluoropropanoyloxy)phenyl] 2,2,3,3,3-pentafluoropropanoate
> <PUBCHEM_IUPAC_SYSTEMATIC_NAME>
[4-[3-oxidanylidene-2-[2,2,3,3,3-pentakis(fluoranyl)propanoylamino]-3-[2,2,2-tris(fluoranyl)ethoxy]propyl]-2-[2,2,3,3,3-pentakis(fluoranyl)propanoyloxy]phenyl] 2,2,3,3,3-pentakis(fluoranyl)propanoate
> <PUBCHEM_IUPAC_TRADITIONAL_NAME>
2,2,3,3,3-pentafluoropropionic acid [4-[3-keto-2-(2,2,3,3,3-pentafluoropropanoylamino)-3-(2,2,2-trifluoroethoxy)propyl]-2-(2,2,3,3,3-pentafluoropropanoyloxy)phenyl] ester
> <PUBCHEM_IUPAC_INCHI>
InChI=1S/C20H9F18NO7/c21-14(22,23)5-44-10(40)7(39-11(41)15(24,25)18(30,31)32)3-6-1-2-8(45-12(42)16(26,27)19(33,34)35)9(4-6)46-13(43)17(28,29)20(36,37)38/h1-2,4,7H,3,5H2,(H,39,41)
> <PUBCHEM_IUPAC_INCHIKEY>
GFFAEDKYDRYONH-UHFFFAOYSA-N
> <PUBCHEM_XLOGP3_AA>
7.4
> <PUBCHEM_EXACT_MASS>
717.0091585
> <PUBCHEM_MOLECULAR_FORMULA>
C20H9F18NO7
> <PUBCHEM_MOLECULAR_WEIGHT>
717.3
> <PUBCHEM_OPENEYE_CAN_SMILES>
C1=CC(=C(C=C1CC(C(=O)OCC(F)(F)F)NC(=O)C(C(F)(F)F)(F)F)OC(=O)C(C(F)(F)F)(F)F)OC(=O)C(C(F)(F)F)(F)F
> <PUBCHEM_OPENEYE_ISO_SMILES>
C1=CC(=C(C=C1CC(C(=O)OCC(F)(F)F)NC(=O)C(C(F)(F)F)(F)F)OC(=O)C(C(F)(F)F)(F)F)OC(=O)C(C(F)(F)F)(F)F
> <PUBCHEM_CACTVS_TPSA>
108
> <PUBCHEM_MONOISOTOPIC_WEIGHT>
717.0091585
> <PUBCHEM_TOTAL_CHARGE>
0
> <PUBCHEM_HEAVY_ATOM_COUNT>
46
> <PUBCHEM_ATOM_DEF_STEREO_COUNT>
0
> <PUBCHEM_ATOM_UDEF_STEREO_COUNT>
1
> <PUBCHEM_BOND_DEF_STEREO_COUNT>
0
> <PUBCHEM_BOND_UDEF_STEREO_COUNT>
0
> <PUBCHEM_ISOTOPIC_ATOM_COUNT>
0
> <PUBCHEM_COMPONENT_COUNT>
1
> <PUBCHEM_CACTVS_TAUTO_COUNT>
-1
> <PUBCHEM_COORDINATE_TYPE>
1
5
255
> <PUBCHEM_BONDANNOTATIONS>
27  28  3
29  30  8
29  32  8
30  33  8
32  36  8
33  34  8
34  36  8
$$$$
