528824
  -OEChem-10302200292D
 46 45  0     1  0  0  0  0  0999 V2000
    2.5369   -0.8660    0.0000 O   0  0  0  0  0  0  0  0  0  0  0  0
    6.8671   -0.3660    0.0000 C   0  0  3  0  0  0  0  0  0  0  0  0
    6.0010    0.1340    0.0000 C   0  0  0  0  0  0  0  0  0  0  0  0
    7.7331    0.1340    0.0000 C   0  0  0  0  0  0  0  0  0  0  0  0
    8.5991   -0.3660    0.0000 C   0  0  0  0  0  0  0  0  0  0  0  0
    5.1350   -0.3660    0.0000 C   0  0  0  0  0  0  0  0  0  0  0  0
    9.4651    0.1340    0.0000 C   0  0  0  0  0  0  0  0  0  0  0  0
    4.2690    0.1340    0.0000 C   0  0  0  0  0  0  0  0  0  0  0  0
    6.8671   -1.3660    0.0000 C   0  0  0  0  0  0  0  0  0  0  0  0
   10.3312   -0.3660    0.0000 C   0  0  0  0  0  0  0  0  0  0  0  0
    3.4030   -0.3660    0.0000 C   0  0  3  0  0  0  0  0  0  0  0  0
   11.1972    0.1340    0.0000 C   0  0  0  0  0  0  0  0  0  0  0  0
   10.3312   -1.3660    0.0000 C   0  0  0  0  0  0  0  0  0  0  0  0
    3.9030   -1.2320    0.0000 C   0  0  0  0  0  0  0  0  0  0  0  0
    2.9030    0.5000    0.0000 C   0  0  0  0  0  0  0  0  0  0  0  0
    3.4030    1.3660    0.0000 C   0  0  0  0  0  0  0  0  0  0  0  0
    6.3301   -0.6760    0.0000 H   0  0  0  0  0  0  0  0  0  0  0  0
    6.3996    0.6089    0.0000 H   0  0  0  0  0  0  0  0  0  0  0  0
    5.6025    0.6089    0.0000 H   0  0  0  0  0  0  0  0  0  0  0  0
    8.1316    0.6089    0.0000 H   0  0  0  0  0  0  0  0  0  0  0  0
    7.3346    0.6089    0.0000 H   0  0  0  0  0  0  0  0  0  0  0  0
    4.7365   -0.8410    0.0000 H   0  0  0  0  0  0  0  0  0  0  0  0
    5.5335   -0.8410    0.0000 H   0  0  0  0  0  0  0  0  0  0  0  0
    8.2006   -0.8410    0.0000 H   0  0  0  0  0  0  0  0  0  0  0  0
    8.9976   -0.8410    0.0000 H   0  0  0  0  0  0  0  0  0  0  0  0
    9.8637    0.6089    0.0000 H   0  0  0  0  0  0  0  0  0  0  0  0
    9.0666    0.6089    0.0000 H   0  0  0  0  0  0  0  0  0  0  0  0
    4.6675    0.6089    0.0000 H   0  0  0  0  0  0  0  0  0  0  0  0
    3.8705    0.6089    0.0000 H   0  0  0  0  0  0  0  0  0  0  0  0
    6.2471   -1.3660    0.0000 H   0  0  0  0  0  0  0  0  0  0  0  0
    6.8671   -1.9860    0.0000 H   0  0  0  0  0  0  0  0  0  0  0  0
    7.4871   -1.3660    0.0000 H   0  0  0  0  0  0  0  0  0  0  0  0
   10.8681   -0.6760    0.0000 H   0  0  0  0  0  0  0  0  0  0  0  0
   11.5072   -0.4030    0.0000 H   0  0  0  0  0  0  0  0  0  0  0  0
   11.7341    0.4440    0.0000 H   0  0  0  0  0  0  0  0  0  0  0  0
   10.8872    0.6709    0.0000 H   0  0  0  0  0  0  0  0  0  0  0  0
    9.7112   -1.3660    0.0000 H   0  0  0  0  0  0  0  0  0  0  0  0
   10.3312   -1.9860    0.0000 H   0  0  0  0  0  0  0  0  0  0  0  0
   10.9512   -1.3660    0.0000 H   0  0  0  0  0  0  0  0  0  0  0  0
    3.3660   -1.5420    0.0000 H   0  0  0  0  0  0  0  0  0  0  0  0
    4.2130   -1.7690    0.0000 H   0  0  0  0  0  0  0  0  0  0  0  0
    4.4399   -0.9221    0.0000 H   0  0  0  0  0  0  0  0  0  0  0  0
    2.2830    0.5000    0.0000 H   0  0  0  0  0  0  0  0  0  0  0  0
    2.0000   -0.5560    0.0000 H   0  0  0  0  0  0  0  0  0  0  0  0
    4.0230    1.3660    0.0000 H   0  0  0  0  0  0  0  0  0  0  0  0
    3.0930    1.9030    0.0000 H   0  0  0  0  0  0  0  0  0  0  0  0
  1 11  1  0  0  0  0
  1 44  1  0  0  0  0
  2  3  1  0  0  0  0
  2  4  1  0  0  0  0
  2  9  1  0  0  0  0
  2 17  1  0  0  0  0
  3  6  1  0  0  0  0
  3 18  1  0  0  0  0
  3 19  1  0  0  0  0
  4  5  1  0  0  0  0
  4 20  1  0  0  0  0
  4 21  1  0  0  0  0
  5  7  1  0  0  0  0
  5 24  1  0  0  0  0
  5 25  1  0  0  0  0
  6  8  1  0  0  0  0
  6 22  1  0  0  0  0
  6 23  1  0  0  0  0
  7 10  1  0  0  0  0
  7 26  1  0  0  0  0
  7 27  1  0  0  0  0
  8 11  1  0  0  0  0
  8 28  1  0  0  0  0
  8 29  1  0  0  0  0
  9 30  1  0  0  0  0
  9 31  1  0  0  0  0
  9 32  1  0  0  0  0
 10 12  1  0  0  0  0
 10 13  1  0  0  0  0
 10 33  1  0  0  0  0
 11 14  1  0  0  0  0
 11 15  1  0  0  0  0
 12 34  1  0  0  0  0
 12 35  1  0  0  0  0
 12 36  1  0  0  0  0
 13 37  1  0  0  0  0
 13 38  1  0  0  0  0
 13 39  1  0  0  0  0
 14 40  1  0  0  0  0
 14 41  1  0  0  0  0
 14 42  1  0  0  0  0
 15 16  2  0  0  0  0
 15 43  1  0  0  0  0
 16 45  1  0  0  0  0
 16 46  1  0  0  0  0
M  END
> <PUBCHEM_COMPOUND_CID>
528824
> <PUBCHEM_COMPOUND_CANONICALIZED>
1
> <PUBCHEM_CACTVS_COMPLEXITY>
186
> <PUBCHEM_CACTVS_HBOND_ACCEPTOR>
1
> <PUBCHEM_CACTVS_HBOND_DONOR>
1
> <PUBCHEM_CACTVS_ROTATABLE_BOND>
9
> <PUBCHEM_CACTVS_SUBSKEYS>
AAADceBwIAAAAAAAAAAAAAAAAAAAAAAAAAAAAAAAAAAAAAAAAAAAGgAACAAADUSAgAACAAAAAgCAACBCAAAAAAAgAAAIAAAAAAgABAIAAAAAQAAEgAAAEAGAwPAOAAAAAAAAAAAAAAAAAAAAAAAAAAAAAA==
> <PUBCHEM_IUPAC_OPENEYE_NAME>
3,7,11-trimethyldodec-1-en-3-ol
> <PUBCHEM_IUPAC_CAS_NAME>
3,7,11-trimethyl-1-dodecen-3-ol
> <PUBCHEM_IUPAC_NAME_MARKUP>
3,7,11-trimethyldodec-1-en-3-ol
> <PUBCHEM_IUPAC_NAME>
3,7,11-trimethyldodec-1-en-3-ol
> <PUBCHEM_IUPAC_SYSTEMATIC_NAME>
3,7,11-trimethyldodec-1-en-3-ol
> <PUBCHEM_IUPAC_TRADITIONAL_NAME>
3,7,11-trimethyldodec-1-en-3-ol
> <PUBCHEM_IUPAC_INCHI>
InChI=1S/C15H30O/c1-6-15(5,16)12-8-11-14(4)10-7-9-13(2)3/h6,13-14,16H,1,7-12H2,2-5H3
> <PUBCHEM_IUPAC_INCHIKEY>
XLIJOVLDKFATNT-UHFFFAOYSA-N
> <PUBCHEM_XLOGP3_AA>
5.4
> <PUBCHEM_EXACT_MASS>
226.229665576
> <PUBCHEM_MOLECULAR_FORMULA>
C15H30O
> <PUBCHEM_MOLECULAR_WEIGHT>
226.40
> <PUBCHEM_OPENEYE_CAN_SMILES>
CC(C)CCCC(C)CCCC(C)(C=C)O
> <PUBCHEM_OPENEYE_ISO_SMILES>
CC(C)CCCC(C)CCCC(C)(C=C)O
> <PUBCHEM_CACTVS_TPSA>
20.2
> <PUBCHEM_MONOISOTOPIC_WEIGHT>
226.229665576
> <PUBCHEM_TOTAL_CHARGE>
0
> <PUBCHEM_HEAVY_ATOM_COUNT>
16
> <PUBCHEM_ATOM_DEF_STEREO_COUNT>
0
> <PUBCHEM_ATOM_UDEF_STEREO_COUNT>
2
> <PUBCHEM_BOND_DEF_STEREO_COUNT>
0
> <PUBCHEM_BOND_UDEF_STEREO_COUNT>
0
> <PUBCHEM_ISOTOPIC_ATOM_COUNT>
0
> <PUBCHEM_COMPONENT_COUNT>
1
> <PUBCHEM_CACTVS_TAUTO_COUNT>
-1
> <PUBCHEM_COORDINATE_TYPE>
1
5
255
> <PUBCHEM_BONDANNOTATIONS>
11  1  3
2  9  3
$$$$
