528872
  -OEChem-10302200292D
 44 44  0     1  0  0  0  0  0999 V2000
    2.8660   -0.5000    0.0000 Si  0  0  0  0  0  0  0  0  0  0  0  0
    6.3301    3.5000    0.0000 F   0  0  0  0  0  0  0  0  0  0  0  0
    7.3301    2.5000    0.0000 F   0  0  0  0  0  0  0  0  0  0  0  0
    5.3301    2.5000    0.0000 F   0  0  0  0  0  0  0  0  0  0  0  0
    3.7320    0.0000    0.0000 O   0  0  0  0  0  0  0  0  0  0  0  0
    7.1962    1.0000    0.0000 O   0  0  0  0  0  0  0  0  0  0  0  0
    5.4641    1.0000    0.0000 N   0  0  0  0  0  0  0  0  0  0  0  0
    4.5981   -0.5000    0.0000 C   0  0  3  0  0  0  0  0  0  0  0  0
    5.4641    0.0000    0.0000 C   0  0  3  0  0  0  0  0  0  0  0  0
    4.5981   -1.5000    0.0000 C   0  0  0  0  0  0  0  0  0  0  0  0
    6.3301   -0.5000    0.0000 C   0  0  0  0  0  0  0  0  0  0  0  0
    2.3660    0.3660    0.0000 C   0  0  0  0  0  0  0  0  0  0  0  0
    2.0000   -1.0000    0.0000 C   0  0  0  0  0  0  0  0  0  0  0  0
    3.3660   -1.3660    0.0000 C   0  0  0  0  0  0  0  0  0  0  0  0
    4.5981    1.5000    0.0000 C   0  0  0  0  0  0  0  0  0  0  0  0
    5.4641   -2.0000    0.0000 C   0  0  0  0  0  0  0  0  0  0  0  0
    3.7320   -2.0000    0.0000 C   0  0  0  0  0  0  0  0  0  0  0  0
    6.3301    1.5000    0.0000 C   0  0  0  0  0  0  0  0  0  0  0  0
    5.4641   -3.0000    0.0000 C   0  0  0  0  0  0  0  0  0  0  0  0
    3.7320   -3.0000    0.0000 C   0  0  0  0  0  0  0  0  0  0  0  0
    6.3301    2.5000    0.0000 C   0  0  0  0  0  0  0  0  0  0  0  0
    4.5981   -3.5000    0.0000 C   0  0  0  0  0  0  0  0  0  0  0  0
    4.5981    0.1200    0.0000 H   0  0  0  0  0  0  0  0  0  0  0  0
    6.0010    0.3100    0.0000 H   0  0  0  0  0  0  0  0  0  0  0  0
    6.0201   -1.0369    0.0000 H   0  0  0  0  0  0  0  0  0  0  0  0
    6.8671   -0.8100    0.0000 H   0  0  0  0  0  0  0  0  0  0  0  0
    6.6401    0.0369    0.0000 H   0  0  0  0  0  0  0  0  0  0  0  0
    2.9030    0.6760    0.0000 H   0  0  0  0  0  0  0  0  0  0  0  0
    2.0560    0.9030    0.0000 H   0  0  0  0  0  0  0  0  0  0  0  0
    1.8291    0.0560    0.0000 H   0  0  0  0  0  0  0  0  0  0  0  0
    1.6900   -0.4631    0.0000 H   0  0  0  0  0  0  0  0  0  0  0  0
    1.4631   -1.3100    0.0000 H   0  0  0  0  0  0  0  0  0  0  0  0
    2.3100   -1.5369    0.0000 H   0  0  0  0  0  0  0  0  0  0  0  0
    2.8291   -1.6760    0.0000 H   0  0  0  0  0  0  0  0  0  0  0  0
    3.6760   -1.9030    0.0000 H   0  0  0  0  0  0  0  0  0  0  0  0
    3.9030   -1.0560    0.0000 H   0  0  0  0  0  0  0  0  0  0  0  0
    4.9081    2.0369    0.0000 H   0  0  0  0  0  0  0  0  0  0  0  0
    4.0611    1.8100    0.0000 H   0  0  0  0  0  0  0  0  0  0  0  0
    4.2881    0.9631    0.0000 H   0  0  0  0  0  0  0  0  0  0  0  0
    6.0010   -1.6900    0.0000 H   0  0  0  0  0  0  0  0  0  0  0  0
    3.1951   -1.6900    0.0000 H   0  0  0  0  0  0  0  0  0  0  0  0
    6.0010   -3.3100    0.0000 H   0  0  0  0  0  0  0  0  0  0  0  0
    3.1951   -3.3100    0.0000 H   0  0  0  0  0  0  0  0  0  0  0  0
    4.5981   -4.1200    0.0000 H   0  0  0  0  0  0  0  0  0  0  0  0
  1  5  1  0  0  0  0
  1 12  1  0  0  0  0
  1 13  1  0  0  0  0
  1 14  1  0  0  0  0
  2 21  1  0  0  0  0
  3 21  1  0  0  0  0
  4 21  1  0  0  0  0
  5  8  1  0  0  0  0
  6 18  2  0  0  0  0
  7  9  1  0  0  0  0
  7 15  1  0  0  0  0
  7 18  1  0  0  0  0
  8  9  1  0  0  0  0
  8 10  1  0  0  0  0
  8 23  1  0  0  0  0
  9 11  1  0  0  0  0
  9 24  1  0  0  0  0
 10 16  2  0  0  0  0
 10 17  1  0  0  0  0
 11 25  1  0  0  0  0
 11 26  1  0  0  0  0
 11 27  1  0  0  0  0
 12 28  1  0  0  0  0
 12 29  1  0  0  0  0
 12 30  1  0  0  0  0
 13 31  1  0  0  0  0
 13 32  1  0  0  0  0
 13 33  1  0  0  0  0
 14 34  1  0  0  0  0
 14 35  1  0  0  0  0
 14 36  1  0  0  0  0
 15 37  1  0  0  0  0
 15 38  1  0  0  0  0
 15 39  1  0  0  0  0
 16 19  1  0  0  0  0
 16 40  1  0  0  0  0
 17 20  2  0  0  0  0
 17 41  1  0  0  0  0
 18 21  1  0  0  0  0
 19 22  2  0  0  0  0
 19 42  1  0  0  0  0
 20 22  1  0  0  0  0
 20 43  1  0  0  0  0
 22 44  1  0  0  0  0
M  END
> <PUBCHEM_COMPOUND_CID>
528872
> <PUBCHEM_COMPOUND_CANONICALIZED>
1
> <PUBCHEM_CACTVS_COMPLEXITY>
376
> <PUBCHEM_CACTVS_HBOND_ACCEPTOR>
5
> <PUBCHEM_CACTVS_HBOND_DONOR>
0
> <PUBCHEM_CACTVS_ROTATABLE_BOND>
5
> <PUBCHEM_CACTVS_SUBSKEYS>
AAADceByMYgAAAAAAAAAAAAAAAAAAAAAAAAwAAAAAAAAAAABAAAAHxAAAEAADDzhmBZyAIMAAAGIAiFSEAACAAAgAAAIiAAICIgKJiKAkRGEMAAkxgGYiAeQwKAOAAAAAAAAAAAAAAAAAAAAAAAAAAAAAA==
> <PUBCHEM_IUPAC_OPENEYE_NAME>
2,2,2-trifluoro-N-methyl-N-(1-methyl-2-phenyl-2-trimethylsilyloxy-ethyl)acetamide
> <PUBCHEM_IUPAC_CAS_NAME>
2,2,2-trifluoro-N-methyl-N-(1-phenyl-1-trimethylsilyloxypropan-2-yl)acetamide
> <PUBCHEM_IUPAC_NAME_MARKUP>
2,2,2-trifluoro-<I>N</I>-methyl-<I>N</I>-(1-phenyl-1-trimethylsilyloxypropan-2-yl)acetamide
> <PUBCHEM_IUPAC_NAME>
2,2,2-trifluoro-N-methyl-N-(1-phenyl-1-trimethylsilyloxypropan-2-yl)acetamide
> <PUBCHEM_IUPAC_SYSTEMATIC_NAME>
2,2,2-tris(fluoranyl)-N-methyl-N-(1-phenyl-1-trimethylsilyloxy-propan-2-yl)ethanamide
> <PUBCHEM_IUPAC_TRADITIONAL_NAME>
2,2,2-trifluoro-N-methyl-N-(1-methyl-2-phenyl-2-trimethylsilyloxy-ethyl)acetamide
> <PUBCHEM_IUPAC_INCHI>
InChI=1S/C15H22F3NO2Si/c1-11(19(2)14(20)15(16,17)18)13(21-22(3,4)5)12-9-7-6-8-10-12/h6-11,13H,1-5H3
> <PUBCHEM_IUPAC_INCHIKEY>
DUURUAMJAWIWDF-UHFFFAOYSA-N
> <PUBCHEM_EXACT_MASS>
333.13718997
> <PUBCHEM_MOLECULAR_FORMULA>
C15H22F3NO2Si
> <PUBCHEM_MOLECULAR_WEIGHT>
333.42
> <PUBCHEM_OPENEYE_CAN_SMILES>
CC(C(C1=CC=CC=C1)O[Si](C)(C)C)N(C)C(=O)C(F)(F)F
> <PUBCHEM_OPENEYE_ISO_SMILES>
CC(C(C1=CC=CC=C1)O[Si](C)(C)C)N(C)C(=O)C(F)(F)F
> <PUBCHEM_CACTVS_TPSA>
29.5
> <PUBCHEM_MONOISOTOPIC_WEIGHT>
333.13718997
> <PUBCHEM_TOTAL_CHARGE>
0
> <PUBCHEM_HEAVY_ATOM_COUNT>
22
> <PUBCHEM_ATOM_DEF_STEREO_COUNT>
0
> <PUBCHEM_ATOM_UDEF_STEREO_COUNT>
2
> <PUBCHEM_BOND_DEF_STEREO_COUNT>
0
> <PUBCHEM_BOND_UDEF_STEREO_COUNT>
0
> <PUBCHEM_ISOTOPIC_ATOM_COUNT>
0
> <PUBCHEM_COMPONENT_COUNT>
1
> <PUBCHEM_CACTVS_TAUTO_COUNT>
-1
> <PUBCHEM_COORDINATE_TYPE>
1
5
255
> <PUBCHEM_BONDANNOTATIONS>
10  16  8
10  17  8
16  19  8
17  20  8
19  22  8
20  22  8
8  5  3
9  11  3
$$$$
