528867
  -OEChem-10302200292D
 31 30  0     1  0  0  0  0  0999 V2000
    7.1962    1.0000    0.0000 S   0  0  0  0  0  0  0  0  0  0  0  0
    8.0622    0.5000    0.0000 S   0  0  0  0  0  0  0  0  0  0  0  0
    5.4641    1.0000    0.0000 S   0  0  0  0  0  0  0  0  0  0  0  0
    4.5981    0.5000    0.0000 S   0  0  0  0  0  0  0  0  0  0  0  0
    6.3301   -0.5000    0.0000 C   0  0  0  0  0  0  0  0  0  0  0  0
    6.3301    0.5000    0.0000 C   0  0  3  0  0  0  0  0  0  0  0  0
    9.7942    0.5000    0.0000 C   0  0  0  0  0  0  0  0  0  0  0  0
    8.9282    1.0000    0.0000 C   0  0  0  0  0  0  0  0  0  0  0  0
    5.4641   -1.0000    0.0000 C   0  0  0  0  0  0  0  0  0  0  0  0
   10.6603    1.0000    0.0000 C   0  0  0  0  0  0  0  0  0  0  0  0
    3.7320    1.0000    0.0000 C   0  0  0  0  0  0  0  0  0  0  0  0
    2.8660    0.5000    0.0000 C   0  0  0  0  0  0  0  0  0  0  0  0
    2.0000    1.0000    0.0000 C   0  0  0  0  0  0  0  0  0  0  0  0
    6.5422   -1.0826    0.0000 H   0  0  0  0  0  0  0  0  0  0  0  0
    6.9407   -0.3923    0.0000 H   0  0  0  0  0  0  0  0  0  0  0  0
    6.8671    0.1900    0.0000 H   0  0  0  0  0  0  0  0  0  0  0  0
    9.3957    0.0251    0.0000 H   0  0  0  0  0  0  0  0  0  0  0  0
   10.1928    0.0251    0.0000 H   0  0  0  0  0  0  0  0  0  0  0  0
    9.3267    1.4750    0.0000 H   0  0  0  0  0  0  0  0  0  0  0  0
    8.5297    1.4750    0.0000 H   0  0  0  0  0  0  0  0  0  0  0  0
    5.1541   -0.4631    0.0000 H   0  0  0  0  0  0  0  0  0  0  0  0
    4.9272   -1.3100    0.0000 H   0  0  0  0  0  0  0  0  0  0  0  0
    5.7741   -1.5369    0.0000 H   0  0  0  0  0  0  0  0  0  0  0  0
   10.9703    0.4631    0.0000 H   0  0  0  0  0  0  0  0  0  0  0  0
   11.1972    1.3100    0.0000 H   0  0  0  0  0  0  0  0  0  0  0  0
   10.3503    1.5369    0.0000 H   0  0  0  0  0  0  0  0  0  0  0  0
    3.7320    1.6200    0.0000 H   0  0  0  0  0  0  0  0  0  0  0  0
    2.8660   -0.1200    0.0000 H   0  0  0  0  0  0  0  0  0  0  0  0
    2.3100    1.5369    0.0000 H   0  0  0  0  0  0  0  0  0  0  0  0
    1.4631    1.3100    0.0000 H   0  0  0  0  0  0  0  0  0  0  0  0
    1.6900    0.4631    0.0000 H   0  0  0  0  0  0  0  0  0  0  0  0
  1  2  1  0  0  0  0
  1  6  1  0  0  0  0
  2  8  1  0  0  0  0
  3  4  1  0  0  0  0
  3  6  1  0  0  0  0
  4 11  1  0  0  0  0
  5  6  1  0  0  0  0
  5  9  1  0  0  0  0
  5 14  1  0  0  0  0
  5 15  1  0  0  0  0
  6 16  1  0  0  0  0
  7  8  1  0  0  0  0
  7 10  1  0  0  0  0
  7 17  1  0  0  0  0
  7 18  1  0  0  0  0
  8 19  1  0  0  0  0
  8 20  1  0  0  0  0
  9 21  1  0  0  0  0
  9 22  1  0  0  0  0
  9 23  1  0  0  0  0
 10 24  1  0  0  0  0
 10 25  1  0  0  0  0
 10 26  1  0  0  0  0
 11 12  2  3  0  0  0
 11 27  1  0  0  0  0
 12 13  1  0  0  0  0
 12 28  1  0  0  0  0
 13 29  1  0  0  0  0
 13 30  1  0  0  0  0
 13 31  1  0  0  0  0
M  END
> <PUBCHEM_COMPOUND_CID>
528867
> <PUBCHEM_COMPOUND_CANONICALIZED>
1
> <PUBCHEM_CACTVS_COMPLEXITY>
125
> <PUBCHEM_CACTVS_HBOND_ACCEPTOR>
4
> <PUBCHEM_CACTVS_HBOND_DONOR>
0
> <PUBCHEM_CACTVS_ROTATABLE_BOND>
8
> <PUBCHEM_CACTVS_SUBSKEYS>
AAADceBwAABwAAAAAAAAAAAAAAAAAAAAAAAAAAAAAAAAAAAAAAAAGAQAAAAACACEQACCAAAAAACAACBCAAAAAAAAAAAIAAAAAAAAAAAAAQAAAAAAAAAAAAAAAAAAAAAAAAAAAAAAAAAAAAAAAAAAAAAAAA==
> <PUBCHEM_IUPAC_OPENEYE_NAME>
1-(prop-1-enyldisulfanyl)-1-(propyldisulfanyl)propane
> <PUBCHEM_IUPAC_CAS_NAME>
1-(prop-1-enyldisulfanyl)-1-(propyldisulfanyl)propane
> <PUBCHEM_IUPAC_NAME_MARKUP>
1-(prop-1-enyldisulfanyl)-1-(propyldisulfanyl)propane
> <PUBCHEM_IUPAC_NAME>
1-(prop-1-enyldisulfanyl)-1-(propyldisulfanyl)propane
> <PUBCHEM_IUPAC_SYSTEMATIC_NAME>
1-(prop-1-enyldisulfanyl)-1-(propyldisulfanyl)propane
> <PUBCHEM_IUPAC_TRADITIONAL_NAME>
1-(prop-1-enyldisulfanyl)-1-(propyldisulfanyl)propane
> <PUBCHEM_IUPAC_INCHI>
InChI=1S/C9H18S4/c1-4-7-10-12-9(6-3)13-11-8-5-2/h4,7,9H,5-6,8H2,1-3H3
> <PUBCHEM_IUPAC_INCHIKEY>
MMZWJALGNZCSLI-UHFFFAOYSA-N
> <PUBCHEM_XLOGP3_AA>
4.3
> <PUBCHEM_EXACT_MASS>
254.02913527
> <PUBCHEM_MOLECULAR_FORMULA>
C9H18S4
> <PUBCHEM_MOLECULAR_WEIGHT>
254.5
> <PUBCHEM_OPENEYE_CAN_SMILES>
CCCSSC(CC)SSC=CC
> <PUBCHEM_OPENEYE_ISO_SMILES>
CCCSSC(CC)SSC=CC
> <PUBCHEM_CACTVS_TPSA>
101
> <PUBCHEM_MONOISOTOPIC_WEIGHT>
254.02913527
> <PUBCHEM_TOTAL_CHARGE>
0
> <PUBCHEM_HEAVY_ATOM_COUNT>
13
> <PUBCHEM_ATOM_DEF_STEREO_COUNT>
0
> <PUBCHEM_ATOM_UDEF_STEREO_COUNT>
1
> <PUBCHEM_BOND_DEF_STEREO_COUNT>
0
> <PUBCHEM_BOND_UDEF_STEREO_COUNT>
1
> <PUBCHEM_ISOTOPIC_ATOM_COUNT>
0
> <PUBCHEM_COMPONENT_COUNT>
1
> <PUBCHEM_CACTVS_TAUTO_COUNT>
-1
> <PUBCHEM_COORDINATE_TYPE>
1
5
255
> <PUBCHEM_BONDANNOTATIONS>
11  12  1
6  5  3
$$$$
